쯊he Project Gutenberg EBook of Odysseia, by Homer

This eBook is for the use of anyone anywhere at no cost and with
almost no restrictions whatsoever.  You may copy it, give it away or
re-use it under the terms of the Project Gutenberg License included
with this eBook or online at www.gutenberg.org/license


Title: Odysseia

Author: Homer

Translator: Axel Gabriel Sj칬str칬m

Release Date: February 19, 2017 [EBook #54200]

Language: Swedish


*** START OF THIS PROJECT GUTENBERG EBOOK ODYSSEIA ***




Produced by Jari Koivisto and Tapio Riikonen








ODYSSEIA

Af

Homeros


칐fversatt och i Disputationer utgifven af

Axel Gabriel Sj칬str칬m





Helsingfors,
Tryckt hos J. C. Frenckell & Son,
1835-1840.






    Tis de ken allou akoisai; alis pantessin 'Omeros.

                                      _Theokritos_.




INNEH칀LL:

Lecturo.

F칬rsta S친ngen.

   v. 11-21.  ODYSSEUS, mot hvilken POSEIDAON var h칬geligen
              uppbraggt, qvarh칬lls p친 칬n Ogygia, dit han
              efter ett skeppsbrott anl칛ndt, af nymfen KALYPSO,
              som f칬r칛lskat sig i honom.
  v.  22-62.  Medan nu POSEIDAON g칛stade hos Aithioperna,
              anh친ller ATHENE, vid gudarnas r친dpl칛gning,
              att ODYSSEUS m친tte f친 친terv칛nda till sitt Ithaka,
              som han s친 mycket saknar.
  v. 63-305.  S친snart ZEUS dertill samtyckt, r친der ATHENE,
              att HERMES m친tte ju f칬rr desto hellre afs칛ndas till
              KALYPSO, med befallning att l친ta drotten resa hem.
              Sjelf hastar hon till Ithaka och eggar, under
              skepnaden af MENTES, de Taphiers Konung,
              TELEMACHOS, att fr친n palatset bortvisa sin
              moders skaml칬sa friare, samt sjelf resa till
              NESTOR och MENELAOS, f칬r att s칬ka underr칛ttelse
              om fadren.
 v. 306-318.  H칛refter afl칛gsnar sig ATHENE.
 v. 319-444.  Sedan nu TELEMACHOS f칬r de kalasande friarena
              yttrat sin mening, och p친 EURYMACHOS' fr친ga:
              med hvilken fremling han samtalt? gifvit till
              svar, att det varit med MENTES, tillbringar han
              natten bekymmerfull p친 sin kammare, i ber친d att
              f칬ljande dag verkst칛lla gudinnans befallningar,

Andra S친ngen.

    v. 1-79.  F칬ljande dag f칬rkunnar TELEMACHOS, uti
              folkf칬rsamlingen, sin moders friare, att de
              m친ste draga h칛dan.
  v. 80-128.  Derp친 svarar ANTINOOS 칬fvermodigt.
 v. 129-207.  F칬r TELEMACHOS, som derefter beklagar sig 칬fver
              friarenas of칬rr칛tt, och allvarligen yrkar hvad
              han yttrat, visa sig pl칬tsligt tvenne 칬rnar,
              af hvilket j칛rtecken HALITHERSES sp친r olycka 친t
              friarena; men EURYMACHOS skrattar 친t sp친domen,
              och s칛ger trotsigt att friarene alldeles icke
              lemna huset, s친framt icke PENELOPE antingen
              af TELEMACHOS till sin fader 칛ters칛ndes, eller ock
              afg칬r med hvem af dem hon 칛rnar gifta sig.
 v. 208-223.  TELEMACHOS beg칛r ett skepp f칬r sin till칛mnade resa.
 v. 224-241.  MENTOR f칬rebr친r _Ithakesierna_, att de ej 칛ra
              ODYSSEUS' minne.
 v. 242-256.  LEIOKRITOS far h칛ftigt ut mot MENTOR.
 v. 257-295.  Sedan folkf칬rsamlingen 칛r uppl칬st, lofvar ATHENE,
              under MENTORS skepnad, ett skepp 칛t TELEMACHOS,
              och ber honom skaffa sig reskost.
 v. 296-336.  N칛r derefter TELEMACHOS 친terv칛nder till de kalasande
              friarena, mottages han med stickord.
 v. 337-381.  Bortg친ngen fr친n dessa, anmodar han EURYKLEIA,
              att skaffa reskosten i ordning, och affordrar
              henne en ed, att hon skall f칬r hans moder d칬lja
              den tillt칛nkta resan.
 v. 382-434.  Sedan Athene af Noemon f친tt ett skepp, ledsagar
              hon, under MENTORS skepnad, till detsamma om
              qv칛llen TELEMACHOS, och de afresa till Pylos,
              utan PENELOPES vetskap.

Tredje S친ngen.

    v. 1-68.  Beledsagad af ATHENE, kommer TELEMACHOS
              till _Pylos_, der NESTOR jemte sina s칬ner h친ller p친
              som b칛st att offra 친t POSEIDAON; b친da de resande
              mottagas g칛stv칛nligen.
  v. 69-101.  칀t NESTOR, som sedan fr친gar, hvilka och hvadan de
              fremmande 칛ro, svarar TELEMACHOS, att han 칛r
              ODYSSEUS' son, samt reser f칬r att h칬ra tidender
              om sin fader.
 v. 102-198.  Sedan NESTOR h친llit ett l친ftal 칬fver ODYSSEUS,
              ber칛ttar han huruledes _Hellenerne_, efter en
              emellan AGAMEMNON och MENELAOS uppkommen oenighet,
              p친 s칛rskilda v칛gar, s칬kt sina hembygder, och att
              han v칛l lyckligen hemkommit, men ej visste, hvad
              som h칛ndt de andra, vidare 칛n att PHILOKTETES och
              IDOMENEUS likaledes funnit hemmet, och att den af
              AIGISTHOS m칬rdade AGAMEMNON blifvit h칛mnad af sin
              son ORESTES.
 v. 199-252.  TELEMACHOS, uppmanad af NESTOR, att f칬lja ORESTES'
              exempel, anser sig ej kunna v친ga f칬retaget, och
              beg칛r n칛rmare underr칛ttelser om AGAMEMNONS d칬d.
 v. 253-328.  NESTOR g칬r honom till viljes, och r친der honom att
              resa till MENELAOS i Sparta.
 v. 329-370.  Mot aftonen 칛mna ATHENE och TELEMACHOS 친terv칛nda
              till galejan, men d친 NESTOR dertill nekar och bjuder
              dem stanna qvar hos sig 칬fver natten, f칬reb칛r gudinnan
              en angel칛gen resa, och afl칛gsnar sig.
 v. 371-394.  NESTOR igenk칛nner henne.
 v. 395-497.  TELEMACHOS sofver med PEISISTRATOS; far d칛n f칬ljande
              morgon, landv칛gen, i hans s칛llskap; hvilar 칬fver
              natten i _Pherai_, och afreser tidigt vidare till
              MENELAOS.

Fjerde S친ngen.

    v. 1-67.  TELEMACHOS och PEISISTRATOS mottagas g칛stfritt
              af MENELAOS, hvilken som b칛st firar sin sons
              och sin dotters br칬llop.
  v. 68-154.  D친 MENELAOS r친kat f칬ra talet p친 ODYSSEUS, tr칛nga
              sig t친rar fram ur TELEMACHOS' 칬gon. Emedan han
              har sv친rt att dem d칬lja, misst칛nker MENELAOS
              strax, hvem han 칛r, och HELENA, som tillkommer,
              p친st친r fremlingen vara fullkomligen lik ODYSSEUS.
 v. 155-186.  PEISISTRATOS s칛ger, att hon alldeles icke misstager
              sig, och vid ODYSSEUS minne och saknad utbrista
              alla i gr친t.
 v. 187-264.  PEISISTRATOS beder, att lykta gr친ten, p친 hvilken
              HELENA, genom i b칛grarna inkastade trollmedel,
              g칬r fullkomligt slut, och ber칛ttar derjemte,
              att hon igenk칛nnt ODYSSEUS en g친ng vid tillf칛lle,
              d친 han, s친som spejare, v친gat sig in i _Troia_.
 v. 265-289.  MENELAOS omtalar h칛ndelsen vid tr칛h칛sten.
 v. 290-305.  Derefter f칬rfoga sig alla till sofrummen
 v. 306-586.  och f칬ljande dagen, ombedd af TELEMACHOS, att f친
              h칬ra allt hvad MENELAOS visste om hans fader,
              f칬rt칛ljer denne, hvad PROTEUS i Egypten beb친dat
              om Hellenernes hemkomst, och om ODYSSEUS p친
              KALYPSOS 칬,
 v. 587-624.  beder derjemte TELEMACHOS, att dr칬ja qvar n친gra
              dagar, och erbjuder, p친 hans v칛gran, en g칛stsk칛nk.
 v. 625-674.  Emellertid st칛mpla friarene f칬rs친t mot den
              hemv칛ndande TELEMACHOS.
 v. 675-841.  Deras plan uppt칛cker MEDON f칬r PENELOPE, som
              h칬geligen f칬rskr칛ckt beder ATHENE om hjelp,
              och tr칬stas i en nattlig syn.
 v. 842-847.  Emellertid l칛gga sig friarene i f칬rs친t.

Femte S친ngen.

    v. 1-20.  D친 ATHENE i gudarnas r친dsf칬rsamling klagar
              칬fver _Ithakesiernes_ otacksamhet mot ODYSSEUS,
              칬fver hans qvarh친llande p친 KALYPSOS 칬, och
              det mot TELEMACHOS utst칛llda f칬rs친tet,
   v. 21-42.  befaller ZEUS henne, att helbregda 친terf칬ra
              ODYSSEUS till hemlandet, och HERMES att resa till
              KALYPSO, med tills칛gelse om ODYSSEUS f칬rlossning.
  v. 43-115.  HERMES f칬rfogar sig allts친 till _Ogygia_, mottages
              af nymfen med v칛lvilja, och ber칛ttar sitt uppdrag,
 v. 110-144.  hvarefter KALYPSO v칛l klagar 칬fver gudarnes
              afundsjuka, men lofvar 칛ndock att ej l칛ngre
              qvarh친lla ODYSSEUS.
 v. 145-170.  HERMES afl칛gsnar sig, och KALYPSO bjuder ODYSSEUS,
              som sitter p친 hafsstranden, och t칛res af heml칛ngtan,
              att bygga en farkost; sjelf lofvar hon alla resans
              f칬rn칬denheter.
 v. 171-224.  Den kloke och varsame konungen affordrar henne
              en ed, att hon ej hemligen skall st칛mpla hans of칛rd;
              hon afl칛gger eden, f칬ljer hem ODYSSEUS, och
              framst칛ller f칬rg칛fves resans faror.
 v. 225-277.  Dagen derp친 b칬rjar ODYSSEUS byggnadsarbetet,
              hvilket han slutar p친 den fjerde, och afreser
              den femte dagen.
 v. 278-493.  Efter sjutton dagars segling, d친 칬n Scherias
              berg ren synas, uppv칛cker den fr친n _Aithioperna_
              hemvandande POSEIDAON en f칬rskr칛cklig storm, ur
              hvilken ODYSSEUS r칛ddas af LEUKOTHEA, som sk칛nker
              honom sin h친rbindel. ODYSSEUS 칬fvergifver
              farkosten, ankommer simmande, n칛stan utan sansning
              af tr칬tthet, till land vid en flodmynning, och
              tillbringar der natten, efter omst칛ndigheterna.

Sjette S친ngen.

    v. 1-47.  Med afsigt att 친t ODYSSEUS bereda v칛lvilligt
              mottagande hos ALKINOOS, _Phaiekernes_ konung,
              erinrar ATHENE, i en dr칬m, dess dotter,
              NAUSIKAA, om kl칛dtv칛tt.
  v. 48-109.  Sedan allts친, f칬ljande dagen, NAUSIKAA med sina
              t칛rnor 친kit till flodstranden, och kl칛derna
              blifvit, i vanlig ordning, tv칛ttade, roar hon sig,
              medan de torrka, med bollspel.
 v. 110-185.  Men d친 bollen, genom ATHENES f칬ranstaltande,
              nedfallit i vattnet, och, vid t칛rnornas rop,
              ODYSSEUS, uppv칛ckt ur s칬mnen, af NAUSIKAA beg칛r,
              att hon m친 gifva honom kl칛der, och visa honom
              v칛gen till staden --;
 v. 186-250.  s친 villfar hon drottens beg칛ran, och s칛nder
              honom en skrud. Sedan ODYSSEUS densamma p친tagit,
              smyckas han af ATHENE med utm칛rkt sk칬nhet, samt
              vederqvicker sig med mat och dryck.
 v. 251-331.  Derefter bjuder honom den hemv칛ndande NAUSIKAA,
              att 친tf칬lja sin vagn, tills de hunnit ATHENES lund,
              och att der qvarstanna, samt, s친snart hon kunde
              synas l칛nd till sin faders boningar, begifva sig
              till desamma, och f칬rst helsa hennes moder.

Sjunde S친ngen.

    v. 1-36.  Efter NAUSIKAA begifver sig ODYSSEUS till
              staden, och m칬ter p친 v칛gen ATHENE f칬rkl칛dd, samt
              beder henne att visa Sig kungaborgen.
  v. 37-239.  Dit beledsagad, och sedan han beundrat ALKINOOS'
              Palats och parker, nalkas han, b칬nfallande,
              drottningens kn칛n, och undf칛gnas herrligen. Men
              n칛r 칬frige g칛sterna bortg친tt, igenk칛nner ARETE de
              kl칛der, ODYSSEUS b칛r, och sp칬rjer, hvadan han
              kommer, samt af hvem han dem erh친llit,
 v. 240-347.  ODYSSEUS ber칛ttar korteligen sin resas m칬dor och
              faror i hvarefter konungen lofvar honom skepp och
              kamrater till hemf칛rd, erinrande honom att g친 till
              hvila,

칀ttonde S친ngen.

    v. 1-40.  ALKlNOOS befaller utrusta ett skepp, och
              hembeledsaga ODYSSEUS.
   v. 41-93.  F칬r de till g칛stbud kallade drottar sjunger
              emellertid DEMODOKOS om striden mellan ACHILLEUS
              och ODYSSEUS, f칬r hvilken t친rarne frambrista.
  v. 94-103.  S친 snart ALKINOOS m칛rker hans 칛ngslan, uppmanar
              han de sina till k칛mpalekar, f칬r att visa hvad
              Phaiekerne gitta i s친dant afseende utr칛tta,
 v. 104-151.  N칛r dessa slutats, inbjuder LAODAMAS, kongens son,
              ODYSSEUS, att 칛fven f칬rs칬ka sin lycka.
 v. 152-234.  Men d친 EURYALOS med otidighet bem칬ter hans
              urs칛gt, upptr칛der ODYSSEUS till t칛flan, besegrar
              Phaiekerna i diskoskastning, och utmanar dem,
              LAODAMAS undantagen, till allt slags t칛fling,
 v. 235-255.  Dervid blifva alle tyste, och ALKINOOS s칛ger,
              att hans m칛n endast f칬rst친 sig p친 kappl칬pande,
              segling, dans och s친ng.
 v. 256-384.  Derefter dansa n친gre utvalde ynglingar, medan
              DEMODOKOS sjunger KYPRIS och ARES' k칛rlek.
 v. 385-531.  Sedan ODYSSEUS, af Phaiekerna med sk칛nker
              behedrad, badat sig, utbrister han i t친rar vid
              DEMODOKOS' s친ng, under m친ltiden, om _Troiska_
              h칛sten, och Troias f칬rst칬ring.
 v. 532-586.  D친 ALKINOOS detta m칛rker, beder han ODYSSEUS s칛ga,
              hvem han 칛r, hvar ifr친n han kommit, och hvarf칬re
              han utbrustit i t친rar.

Nionde S친ngen.

   v.  1-38.  Sedan ODYSSEUS yppat sitt namn och f칛dernesland,
   v. 39-61.  omtalar han de vexlande 칬den och olyckor, f칬r
              hvilka han med de sina, under hemresan fr친n Troia,
              alltid varit utsatt. Till en b칬rjan er칬frar han v칛l
              staden _Ismaros_, men besegras sedan af Kikonerna.
  v. 62-104.  Derefter drifves han af en vid _Maleia_ uppkommen
              storm till Lotophagerna.
 v. 105-230.  Fr친n dem kommer han till Kykloperna, qvarlemnar de
              칬friga f칬ljeslagarena p친 en n칛ra bel칛gen 칬, och beger
              sig 친tf칬ljd af endast tolf, till POLYPHEMOS.
 v. 231-566.  Denne uppslukar i tre m친l sex af kamraterna, men
              ODYSSEUS utsticker Kyklopens enda 칬ga
              och r칛ddar sig med st칬rsta lifsfara d칛rifr친n.

Tionde S친ngen.

    v. 1-33.  ODYSSEUS forts칛tter ber칛ttelsen: hurusom han,
              anl칛nd till 칬n _Aiolia_, af AIOLOS mottog alla
              vindarna, inneslutna i s칛ck, med undantag af Vestan,
              som borde bringa honom hem till Ithaka.
   v. 34-76.  Men d친 hans reskamrater, under f칬rmodan att finna
              dyrbarheter, 칬ppnat s칛cken, drifves han af de
              utsluppna vindarna tillbaka till Aiolia, och aff칛rdas
              on친digt af V칛derguden.
  v. 77-274.  D칛dan kommer han till _Laistrygonerna_, f칬rlorar
              hos dem elfva skepp, men flyktar med det 친terst친ende
              till 칬n Aiaia, der KIRKE bor.
 v. 275-347.  ODYSSEUS, som af HERMES erh친llit skyddsmedel mot
              KIRKES f칬rtrollningar, frestas af henne till 칛lskog,
              hvar친t han dock icke lemnar geh칬r, innan hon med
              ed lofvat 친tergifva hans sn칬pligt f칬rvandlade
              kamrater mensklig skepnad.
 v. 348-550.  Efter ett 친rsvistelse p친 칬n, beg칛r han, och erh친ller
              af KIRKE tillst친nd att afresa hem친t, men underr칛ttas
              derjemte, att han, enligt 칬denas beslut, dessf칬rinnan
              m친ste bes칬ka underjorden, och r친dfr친ga TEIRESIAS.
 v. 551-574.  Medan de andre skynda till skeppet, nedfaller
              ELPENOR fr친n ett tak, och d칬r.

Elfte S친ngen.

    v. 1-20.  ODYSSEUS seglar med gynnande vind. Som han af KIRKE
              undf친tt, till _Kimmerierne_ och _Okeanos_.
   v. 21-50.  Efter fullbordadt offer infinna sig de aflidnes
              v친lnader, hvilka ODYSSEUS dock v칛grar att dricka
              af bloden, f칬rr칛n han r친dfr친gat TEIRESIAS.
   v. 51-80.  F칬rst framtr칛der nu v친lnaden af ELPENOR, anh친llande
              om begrafning,
  v.  81-89.  sedan kommer ODYSSEUS' moder, ANTIKLEIA.
 v.  90-150.  F칬ljer s친 samtalet med TEIRESIAS,
 v. 151-223.  och med besagde ANTIKLEIA.
 v. 224-328.  En칛r hon sig afl칛gsnat, framtr칛da flera hero칦nor, den
              ena efter den andra.
 v. 329-383.  (H칛rvid afbryter ODYSSEUS ber칛ttelsen, men forts칛tter
              strax 친ter, ombedd af ALKINOOS.)
 v. 384-463.  Vidare f칬ljer samtalet med AGAMEMNONS,
 v. 464-539.  och med ACHILLEUS' v친lnad.
 v. 540-566.  F칬rg칛fves tilltalar ODYSSEUS Telamoniern AIAS.
 v. 567-625.  Derefter f친r han sk친da MINOS med flera.
 v. 626-639.  Men d친 stora skaror af v친lnader nalkas, r칛des han
              att PERSEPHONEIA skall tills칛nda honom det Gorgeiska
              hufvudet, hvarf칬re han 친terv칛nder till sitt skepp,
              och afreser.

Tolfte S친ngen

   v.  1-15.  Sedan ODYSSEUS fr친n Okeanos 친terkommit till
              칬n Aiaia, begrafver han ELPENOR.
  v. 16-141.  KIRKE ber칛ttar honom den f칬rest친ende resans
              farligheter,
 v. 142-165.  af hvilka han dock ej l친ter sig skr칛mmas,
              utan lossar galejan, muntrar upp kamraterna,
 v. 166-200.  och undslipper f칬rst lyckligen SERENERNA,
 v. 291-259.  samt r칛ddas derefter fr친n SKYLLA och CHARYBDIS
              med f칬rlust likv칛l af sex kamrater.
 v. 260-298.  F칬rg칛fves afr친der han de 칬friga att l칛gga till
              vid Solens 칬,
 v. 294-323.  samt s칬ker 친tminstone intala dem, att skona solens
              boskapshjordar.

 v. 324-365.  Icke destomindre slakta desse, p친 EURYLOCHOS'
              inr친dan, och pl친gade af hunger, n친gra oxar,
              medan ODYSSEUS sofver.
 v. 366-390.  D친 nu ZEUS, bevekt af Solgudens b칬ner, lofvat h칛mnas,
 v. 391-399.  fortfara kamraterne likv칛l att 칛ta af det heliga k칬ttet.
 v. 400-453.  Derp친 anl칛nder ODYSSEUS, efter en f칬rskr칛cklig
              storm och skeppsbrott, hvarvid alle kamraterne
              drunkna, helt ensam, till 칬n Ogygia, der Kalypso bor.

Trettonde S친ngen.

   v. 1-125.  Ytterligare af _Phaiekerna_ med sk칛nker
              ih친gkommen, tager ODYSSEUS mot qv칛llen farv칛l af
              ALKINOOS och ARETE; stiger ombord 친 det f칬r hans
              r칛kning utrustade skeppet, 칬fverv칛ldigas af en
              stilla s칬mn och uts칛ttes, efter hastigt full칛ndad
              resa, p친 _Ithakas_ strand.
 v. 126-187.  POSEIDAON f칬rvandlar till sten, icke l친ngt fr친n
              _Scheria_, det 친terv칛ndande skeppet; men Phaiekerne
              blidka honom med ett offer.
 v. 188-428.  Omsider vaknar ODYSSEUS; och d친 han skr칛md och r친dvill
              icke igenk칛nner fosterlandet, m칬tes han af gudinnan
              ATHENE, som f칬rst, under skepnaden af en ung herde,
              ber칛ttar honom, att denna 칬 칛r det djupt saknade
              Ithaka; men sedermera, i qvinnogestalt uppt칛cker
              hvem hon egentligen 칛r; undang칬mmer i nymfernas
              grotta hans dyrbarheter; l칛r honom s칛ttet att d칬da
              friarena, samt lofvar 칛ndteligen 친terf칬ra TELEMACHOS.
 v. 429-440.  Derefter, f칬r att g칬ra Odysseus desto meta
              oigenk칛nnelig, ombildar hon honom alldeles,
              och h칬ljer honom uti en tiggargubhes d친liga kl칛der.

Fjortonde S친ngen.

   v.  1-79.  Svinherden EUMAIOS mottager g칛stfritt sin,
              under tiggareskepnad f칬rdolda, husbonde,
  v. 80-190.  hvilken f칬rg칛fves s칬ker 칬fvertala honom, som
              klagar 칬fver friarenes of칬rr칛tter, och l칛ngtar
              efter sin 칛lskade husbonde, att denne n친nsin mer
              skall 친terkomma.
 v. 191-359.  Sedan ODYSSEUS hopdiktat en historie om sina
              underbara 칬den, ber칛ttar han f칬r EUMAIOS hvad han
              derjemte erfarit om dess husbondes 친terkomst,
 v. 360-408.  samt s칬ker 칬fvertyga den tvekande s친lunda, att
              han betingar sig bel칬ning, ifall han talat sanning,
              och underkastar sig d칬den, ifall han ljugit.
 v. 409-456.  EUMAIOS slaktar derefter ett g칬dsvin, offrar 친t
              gudarna, och bjuder ODYSSEUS till qv칛llsvard.
 v. 457-522.  Denne l칛gger sig derp친 till hvila med de 칬friga herdarna,
 v. 523-533.  men EUMAIOS vandrar af till svinstallen.

Femtonde S친ngen.

   v. 1-129.  Af gudinnan ATHENE erinras TELEMACHOS om
              hemresa, undf칛gnas af MENELAOS och HELENA med
              sk칛nker,
 v. 130-181.  samt skiljes, under godtj칛rtecken, ifr친n dem,
 v. 182-188.  Natten tillbringar han i _Pherai_ hos DIOKLES.
 v. 189-299.  F칬ljande dag, utan att uppeh친lla sig med bes칬k i
              _Pylos_, tar han farv칛l af PEISISTRATOS, och g친r
              ombord p친 sitt skepp. I detsamma infinner sig den
              _Argeiske_ siarn THEOKLYMENOS, som beg칛r, och
              erh친ller tillst친nd att g칬ra ress칛llskap,
 v. 300-491.  Emellertid ber칛ttar derhemma EUMAIOS sina
              fordna 칬den f칬r ODYSSEUS,
 v. 492-545.  TELEMACHOS landar vid en fr친n staden afl칛gsen
              kust p친 Ithaka, och aff칛rdar THEOKLYMENOS till EURYMACHOS,
 v. 516-536.  Derefter resa de 칬frige sj칬ledes till staden,
              men TELEMACHOS vandrar af tillfots, f칬r att upps칬ka
              EUMAIOS.

Sextonde S친ngen.

   v.  1-56.  TELEMACHOS mottages af EUMAIOS med mycken
              gl칛dje och v칛lvilja,
  v. 57-129.  och samtalar med ODYSSEUS, i hvilken han likv칛l
              ej igenk칛nner sin fader.
 v. 130-153.  Derefter beder han EUMAIOS g친 till PENELOPE,
              och ber칛tta om sin hemkomst.
 v. 154-171.  N칛r herden afl칛gsnat sig, synes PALLAS f칬r
              ODYSSEUS med befallning, att han, under EUMAIOS'
              bortavaro, m친 uppt칛cka sig f칬r TELEMACHOS.
 v. 172-320.  Detta sker; och far och son r친dpl칛ga, ang친ende
              friarnes nedg칬rande.
 v. 321-405.  Emellertid anl칛nda TELEMACHOS' f칬ljeslagare till
              staden; hvilket h칬geligen f칬rv친nar de f칬rs친tliga
              friarena, som uppg칬ra andra planer f칬r hans
              m칬rdande, motsagda likv칛l af AMPHINOMOS.
 v. 406-447.  PENELOPE f칬rebr친r friarena deras anslag
              emot TELEMACHOS och tr칬stas af EURYMACHOS,
 v. 448-481.  EUMAIOS 친terkommer, utan att 칛nnu igenk칛nna sin
              konung och herre, ODYSSEUS.

Sjuttonde S친ngen.

   v.  1-60.  F칬ljande morgon g친r TELEMACHOS till staden
              samt helsar EURYKLEIA och sin moder, hvilken
              g칬r l칬ften 친t gudarna.
  v. 61-100.  Derefter 칬nska de falske friarne honom lyda till
              sin 친terkomst, och han emottager THEOKLYMENOS
              beledsagad af PEIRAIOS.
 v. 101-253.  Emellertid, och under det friarne g칛sta, ledsagas
              ODYSSEUS till staden af EUMAIOS.
 v. 254-327.  Den trogne hunden ARGOS.
 v. 328-504.  Friarnes, isynnerhet ANTINOOS' sk칛ndliga uppf칬rande
              mot den f칬rmente tiggaren.
 v. 505-606.  EUMAIOS 친terv칛nder till stallen.

Adertonde S친ngen.

   v. 1-122.  ODYSSEUS besegrar i knytn칛fvestrid tiggaren
              IROS, som 칬fverfallit honom med stickord.
 v. 123-156.  Han varnar AMPHINOMOS f칬r 칬fvermod, och f칬r
              ODYSSEUS' h칛md, ifall drotten 친terv칛nder.
 v. 157-302.  PENELOPE tilltalar sin son och sina friare,
              hvilka, tjuste af hennes sk칬nhet, tills칛nda
              henne sk칛nker.
 v. 303-403.  Emellertid skymfas ODYSSEUS af t칛rnan MELANTHO,
              och af friarne, bland hvilka EURYMACHOS kastar
              efter honom med sin fotpall.
 v. 404-427.  P친 TELEMACHOS' erinran, g친 friarne till s칛ngs.

Nittonde S친ngen.

    v. 1-52.  Sedan vapnen blifvit ur salen bortburna i ett
              annat rum, stannar ODYSSEUS ensam qvar, ock bjuder
              sin son g친 till hvila.
   v. 53-95.  칀terigen skymfad af t칛rnan MELANTHO, bannar han
              henne str칛ngeligen.
  v. 96-360.  PENELOPE samtalar med ODYSSEUS,
 v. 361-475.  hvilken i badet, igenk칛nnes af EURYKLEJA.
 v. 476-507.  ODYSSEUS beder henne vara tyst med uppt칛ckten.
 v. 508-581.  PENELOPE ber칛ttar sin dr칬m f칬r Odysseus, med
              tillk칛nnagifvande, att hon 칛rnade till morgondagen
              uts칛tta en t칛flingsstrid f칬r friarena, samt 칛kta
              den som kunde sp칛nna ODYSSEUS' b친ge, och skjuta
              med pilen genom 칬gat p친 tolf efter hvaran
              uppst칛llda yxar.
 v. 582-604.  Sedan ODYSSEUS gillat f칬rslaget, g친r PENELOPE
              bort till hvila.

Tjugonde S친ngen,

    v. 1-21.  ODYSSEUS, som hvilar i f칬rsalen, bem칛rker
              t칛rnornas fr칛ckhet.
   v. 22-57.  ATHENE tr칬star honom.
  v. 58-121.  Om morgon bittida v칛ckt af PENELOPE klagan, beg칛r han,
              och erh친ller af ZEUS ett lyckosamt j칛rtecken.
 v. 122-161.  Sedan TELEMACHOS tillspott EURYKLEIA, om hon v칛l
              undf칛gnat fremlingen, begifver han sig till torgs,
              hvaremot hon tillreder m친ltid 친t friarena.
 v. 162-240.  Tillkomma EUMAIOS, MELANTHIOS och PHILOITIOS.
 v. 241-246.  Friarenes plan att dr칛pa TELEMACHOS tillintetg칬res.
 V. 247-320.  Upptr칛det med KTESIPPOS.
 v. 321-372.  Sedan AGELAOS s칬kt f칬rm친 TELEMACHOS att, till hans
              f칬rdel, inverka p친 sin moder, uppskr칛mmas friarene
              genom olycksf칬rebud, den THEOKLYMENOS f칬rklarar.
 v. 373-394.  TELEMACHOS g칛ckas af friarena, men 친terh친ller sin
              harm, och afvaktar den snart intr칛ffande h칛mden.

Tjugondef칬rsta S친ngen.

    v. 1-95.  PENELOPEIA f칬resl친r samtliga friarne en t칛flingsstrid,
              samt lofvar 칛kta den, som gitter sp칛nna ODYSSEUS' b친ge,
              och skjuta med pilen genom 칬gat p친 tolf efter hvaran
              uppst칛llda yxar.
  v. 96-139.  TELEMACHOS sjelf skulle, vid fjerde f칬rs칬ket, lyckats
              att sp칛nna b친gen, om ej ODYSSEUS det f칬rhindrat.
 v. 140-244.  Men d친 samtlige friarne anstr칛ngt sig f칬rg칛fves, g친r
              ODYSSEUS ut med EUMAIOS och koherden, uppt칛cker hvem
              han 칛r, anordnar om hvad som b칬r g칬ras och utlofvar
              bel칬ning.
 v. 245-269.  D친 nu 칛fven EURYMACHOS gjort ett fruktl칬st f칬rs칬k,
              f칬resl친r Antinoos uppskof till morgondagen.
 v. 270-310.  ODYSSEUS' beg칛ran, 칛tt 칛fven f친 pr칬fva sin lycka,
              afsl친s h칬gmodigt af samme ANTINOOS.
 v. 311-430.  Men genom PENELOPES och TELEMACHOS' bemedling,
              칬fverlemnas dock b친gen 친t ODYSSEUS; d칬rrarne st칛ngas;
              ODYSSEUS sp칛nner sin b친ge och skjuter pilen genom 칬gat
              p친 alla yxarna.
 v. 431-434.  H칛refter rusta sig fader och son till friarnes nederlag.

Tjugondeandra S친ngen.

    v. 1-41.  Sedan ODYSSEUS f칬r friarne r칬jt sig, och hotat
              att h칛mnas lidna of칬rr칛tter, b칬rjas nederlagen
              och den f칬rsta pilen tr칛ffar ANTINOOS.
   v. 42-88.  Derefter d칬das EURYMACHOS.
  v. 89-152.  TELEMACHOS, som d칬dat AMPHINOMOS, afhemtar vapen
              fr친n ett annat rum, hvars d칬rr han ej v칛l l친ser;
              MELANTHIOS passar allts친 p친 tillf칛llet, och bringar
              칛fven 친t friarne vapen.
 v. 153-200.  Gripen af de trogna tjenarena, blir han h칛ngd.
 v. 201-240.  ATHENE manar ODYSSEUS till modig strid.
 v. 241-390.  Nu nedg칬ras friarene alla; endast PHEMIOS och
              MEDON skonas.
 v. 391-456.  ODYSSEUS bjuder att liken skola utb칛ras.
 v. 457-477.  T칛rnornas och MELANTHIOS' straff.
 v. 478-501.  De redligt sinnades goda mottagning.

Tjugondetredje S친ngen.

    v. 1-68.  EURYKLEIA ber칛ttar f칬r PENELOPE, att hennes make
              hemkommit, och d칬dat friarena; hvilket hon icke tror.
   v. 69-95.  Omsider nedstiger hon dock i matsalen, och tager
              plats midtemot ODYSSEUS, hvilken hon ej v친gar tilltala.
  v. 96-116.  TELEMACHOS ogillar, men ODYSSEUS urs칛ktar s친dant
              f칬rfarande --,
 v. 117-151   samt befaller, att, till undvikande af otidigt
              kringspridt rykte om friarnes nederlag, anst칛lla
              glada danser i palatset.
 v. 152-230.  Tv칛ttad, omkl칛dd och af Pallas f칬rsk칬nad, igeng칛nnes
              ODYSSEUS 칛ndtligen af sin gem친l,
 v. 231-343.  med hvilken han samtalar om fordna och kommande tider.
 v. 344-372.  F칬ljande dag vandrar han till sin fader, LAERTES.

Tjugondefjerde S친ngen.

    v. 1-97.  Till underjorden beledsagar HERMES friarenes skuggor,
              som m칬tas, bland andra, af ACHILLEUS och AGAMEMNON.
  v. 98-203.  Upp친 tillfr친gan ber칛ttar AMPHIMEDON om det fruktl칬sa
              frieriet till PENELOPE och det af ODYSSEUS utf칬rda
              nederlaget.
 v. 204-411.  Emellertid r친kar ODYSSEUS sin fader, och 칬fvertygar
              honom, genom s칛kra tecken, att han 칛r den r칛tte sonen.
              Den af gl칛dje n칛stan sansl칬se LAERTES vederqvickes
              af Athene, och inbjudes till m친ltid.
 v. 412-470.  Fast칛n afr친dde af MEDON och HALITHERSES, rusta sig
              friarenes anf칬rvandter till h칛md.
 v. 471-547.  Men p친 ATHENE's inr친dan g칬res 칛nda p친 striden,
              och formelig fred afslutas.




LECTURO.


Vergente ad finem anno 1818 adgrediebamur, Dissertationibus Academicis,
editionem in publicum dare Homericae _Odysseae_, Graece et Svethice,
notis instructam brevissimis, et quidem in forma quarta; continuabamus
opusculum, nobismet certe gratum, neque Commitionibus non acceptum,
interpositis nonnullis quoque aliis studiorum deliciis, usque ad annum
tristissimi incendii 1827, memori quem mente dolemus, omnia vastantis
et vorantis. Quiescebant dein amoense curae, donec _Odysseam_ nostram
de novo liceret adoriri. -- Refiugimus vero jam antea edita, formam
mutamus, Graecum mittimus certum et notulas. Prior metaphrasis
extendebatur ad Quartae Rhapsodiae versum 319; quae dein sequentur sunt
posterioris curae, quam utque in antecedentibus desiderari velemus.
Absolvetur Odysseae haec nova editio per Tomos Quatuor.




F칐RSTA S칀NGEN.


    S친ngm칬, sjung mig den man, m친ngvandraren, hvilken s친 l칛nge
    Vankade, sen han Troia f칬rst칬rt, den heliga staden;
    M친nga menniskors bygder bes친g han och lynnen sig l칛rde,
    M친nga sm칛rtor jemv칛l utstod i sitt hjerta, p친 hafvet,
    츿flande f칬r sitt lif, och f칬r reskamraternas hemkomst.      5
    Reskamraterna dock ej fr칛lste den fiksame s친 ens;
    Ty med sitt 칬fverd친d sig sjelfva beredde de d칬den,
    D친rlige, hvilka Hyperion's sons, Eelios' oxar
    칀to; men hemkomstdagen f칬r dem ock derf칬r han borttog.
    S친ngm칬, sjung nu f칬r oss, Zeus' dotter, n친got af detta!    10

    Voro s친 alle de andre, som undg친tt br친da f칬rderfvet,
    Hemma nuren, sen kriget och sj칬n dem lyckats att undg친;
    Men v친r hjelte allena, i saknad af maka och hemkomst,
    H칬ll den v칬rdiga nymfen, gudinnors gudinna, Kalypso,
    Giljande sig till gem친l, 칛n qvar i de h친liga grottor.      15
    Men d친 nu, vid omv칛lfvande 친r, den tiden var inne,
    Hvilken 친t honom best칛mmts af gudar, att l칛nda tillbaka
    Hem till Ithaka, der ej skulle han m칬dorna undg친tt,
    Fast hos v칛nnerna stadd; men gudar sig 칬mkade alle,
    Utom Poseidaon, som var f칬rskr칛ckligen uppbragt            20
    Mot gudmaken Odysseus, f칬rr칛n han hunne sin hemjord.

    Till Aithiopernas land var han faren, det fjerran bel칛gna,
    (H칛n till de Aithiopeer, som tvedelt, ytterst bland menskor,
    Bo, der Hyperion sjunker en del, en ann, der han uppg친r.)
    Att mottaga hos dem hekatomben af tjurer och gumsar.       25
    Der han till m친ltids satt, sig f칛gnande, medan de andre
    Hade uti Zeus' salar. Olympierns, samlat sig alle.
    D친 begynte att orda de d칬dliges fader och gudars.
    Ty i s칛len han sig p친minnte den b친lde Aigisthos,
    Som Agamemnonides, vidtfrejdad Orestes, ihjelslog.         30
    Honom mindes han nu, och ibland od칬dliga talte.

    Hm! hur de d칬dlige dock andraga mot gudarna klagm친l:
    Ty att det onda fr친n oss h칛r flyter, de yrka, men sjelfve,
    Genom sitt 칬fverd친d de hafva, mot 칬det, bekymmer.
    츿ktande s친, mot 칬det, Aigisthos 칛fven Atreidens            35
    Vigda gem친l, och konungen sjelf, heml칛ndande, dr칛pte,
    Vetande br친dt f칬rderf; vi beb친dade honom p친 f칬rhand,
    S칛ndande Hermeias, v칛lspejande Argosd칬darn,
    Att ej konungen m칬rda, att ej hans maka beg칛ra.
    Ty af Orestes h칛md skall vederfaras Atreiden,              40
    N칛r fullvuxen han blir och l칛ngtar till f칛dernelandet.
    Ordade s친 Hermeias, men ej Aigisthos bevekte,
    Fast han menade v칛l; nu allt han rikligen umg칛llt.

    Honom svarte derp친 klar칬gda gudinnan Athene:
    O, du, v친r alles far, Kronides, af konungar ypperst,       45
    Denne, minsann, f칬rtjente den d칬d, han dukade under;
    M친 desslikes en annan f칬rg친s, ho, s친dant bedrifver.
    Men mitt hjerta l친gar af sorg f칬r den vise Odysseus,
    Olycksmannen, som lider betryck, fr친n v칛nnerna fjerran,
    P친 kringfluten en 칬, der hafvets nafle befinnes;           50
    Skogbevuxen 칛r 칬n; en gudinna i salarna vistas,
    Dotter utaf allkunnige Atlas, som djupen i hafvet
    Samtliga vet 칬fverallt, samt sjelf de h칬ga kolonner
    Uppb칛r, som fr친n hvaran 친tskilja jorden och himlen;
    Dottren af denne hos sig qvarh친ller den s칬rjande 칬mkling.  55
    St칛ds derjemte med s칬ta och smilande orden hon smeker
    Honom, att han m친 gl칬mma sitt Ithaka; tvertom Odysseus,
    L칛ngtande f친 helst sk친da den r칬k, som hvirflar 친t h칬jden
    I hans f칛derneland, till칬nskar sig d칬den. Ej nu ens
    B칬js ditt sinne, Olympier, 칛n? Har icke Odysseus,          60
    Vid Argeiernas skepp dig f칛gnat med g칛rden af offer
    Fordom i Troers rymliga land? Hvi vredgas du s친, Zeus?

    Henne till svar genm칛lte den molnhopskockande gud Zeus:
    Dotter min, hvad f칬r ett ord dig flydde ur t칛ndernas st칛ngsel?
    Skulle v칛l jag ha n친nsin f칬rgl칬mmt den 칛dle Odysseus,      65
    Hvilken i klokskap vinner de d칬dlige, vinner i offer
    Till od칬dliga gudar, som bo i himmelens rymder?
    Men nu Poseidaon, jordfamnarn, 칛r st칛dse best칛ndigt
    Vred f칬r Kyklopens skull, som drotten ber칬fvade 칬gat,
    F칬r Polyphemos, den trottsige best, hvars kraft 칛r den st칬rsta  70
    Bland Kyklopernas flock. Hans mor 칛r nymfen Thoosa,
    Dotter till Phorkyn, kong i det ofruktb칛rande hafvet,
    Med Poseidaon 칛lskogf칬rent i de h친liga grottor.
    Fr친n den tiden Poseidaon, jordskakarn, ej d칬dar,
    Men dock jagar omkring fr친n f칛dernejorden Odysseus,        75
    Nu d친 v칛lan, m친 vi h칛r allsamtligen 칬fver hans hemkomst
    R친dsl친, huru den sker. Poseidaon ock sin f칬rbittring
    L친ter fara; han icke f칬rm친r, d친 ej gudarne medge,
    Mot od칬dliga alla sin tvist utf칬ra allena.

    Honom svarte derp친 klar칬gda gudinnan Athene:               80
    O, du v친r alles far, Kronides, af konungar ypperst,
    Om nu detta i sanning 칛r k칛rt f칬r de saliga gudar.
    Att till sitt eget hem f친r l칛nda den vise Odysseus,
    S칛ndom d친 Hermeias, budb칛raren, Argosd칬darn,
    Han till Ogygias 칬, att han m친tte s친 fort som 칛r m칬jligt   85
    V친rt oryggliga r친d sk칬nlockiga nymfen f칬rkunnas
    Hemkomst 친t t친lsinnta Odysseus, att hem han m친 komma.
    Jag deremot mig begifver till Ithaka, att jag m친 sonen
    Mer anmana, och mod ingifva 친t honom i sinnet,
    Att han till r친dslag kalle de hufvudfagre Achaier,         90
    Och f칬rvise den friaretropp, som hittills best칛ndigt
    Slaktar hans f친r och jemv칛l fotsl칛pande hornade korna.
    Vill ock s칛nda till Sparta, och till sandmarkiga Pylos,
    Att utforska, om n친got f칬rsports om fadrens igenkomst,
    Samt sig st친teligt namn bland menskor derjemte f칬rv칛rfva,  95

    Talande s친, vid f칬ttren hon bandt de kostliga gyllne
    Himmelska skor, som henne b친d' ut칬fver hafvet och 칛fven
    Den om칛tliga jord h칛nburo, i kapp med en vindfl칛gt.
    Tog sin v칛ldiga lans, med v칛ttjade kopparn beslagen,
    Tung och kraftig och stor, med hvilken hon hjeltarnes leder  100
    Tuktar, p친 hvilka som helst hon 칛r vred, h칬gborna gudinnan.
    Sedan i hastande fart nedsteg hon fr친n himmelens klinter,
    Stod s친 hos Ithakas folk, i farstun strax hos Odysseus,
    P친 g친rdstr칬sklen, och hade i hand kastspjutet af koppar,
    Tagande skepnad af Taphiers drott, g칛stfremlingen Mentes.  105
    Der antr칛ffade hon de trottsiga friarne, hvilka
    Utanf칬r d칬rrarna nu f칬rlustade sinnet med terning,
    Sittande alla p친 hudar af n칬t, dem sjelfve de slaktat.
    Men herolder 친t dem och of칬rtrutne betjenter,
    Somlige blandade vatten med vin i kratererna samman,      110
    Somlige 친terigen med de pipiga svamparna borden
    Tvagde, och st칛llde dem fram, samt delade rikliga k칬ttet.
    Henne af alla d친 f칬rst gudlike Telemachos m칛rkte;
    Ty bland friarne satt han, i innersta hjertat bekymrad,
    Sk친dande fadren, den b친lde, i tankarna, huru han, heml칛nd,  115
    M친nde bland friarnes flock anst칛lla 1 huset f칬rskingring,
    츿ran beh친lla f칬r sig, och om egna besittningar r친da.
    T칛nkande s친, bland friarne satt han, och m칛rkte Athene,
    Gick s친 i farstun ut, och f칬rgrymmade sig i sitt sinne,
    Att den fremmande stod vid d칬rrarna l칛nge, och n칛rmad,    120
    H칬gra handen han tryckte, och lansen af koppar emottog,
    Och tllltalade henne, ooh sade bevingade orden:

    Hell dig, fremling, af oss v칛nskapligt du helsas; men sedan,
    N칛r du vid bordet 칛r m칛tt, l친t se, hvad dig g칬res behof af.

    Sade, och gick s친 fornt; ock f칬ljde nu Pallas Athene.     125
    Men d친 de intr칛dt b친da uti det h칬ga palatset,
    sen f칬rde han fram, och st칛lde mot l친nga kolonnen,
    Inom det v칛lombonade skrank, der 칛fven de andra
    Lansar stodo i m칛ngd, t친lmodige drotten Odysseus'.
    Henne han ledde till thronen, och bredde inunder en konstgjord  130
    Kostelig duk; var 칛fven en pall f칬r f칬tterna anbraggt.
    Sjelf bredevid sin pyntade stol han st칛llde, fr친n alla
    Friarne skild, att icke hans g칛st, af stojet besv칛rad,
    M친tte vid maten ledas, i lag med de trottsiga bjessar,
    Och f칬r att sp칬rja jemv칛l om sin bortavarande fader.      135
    Men tv칛ttvatten i sk친ln ih칛llde en t칛rna, och frambar
    I den sk칬na och gyllne, upp친 tv칛ttfatet af silfver,
    Vattnet, och dukade der bredevid det fejade bordet;
    츿rbara skafferskan hemtade br칬d, och satte f칬r g칛sten,
    Samt m친ng r칛tter dertill af allt hvad huset f칬rm친dde.     140
    F칬resk칛rarn p친 fat upplade och hemtade allt slags
    K칬tt, och st칛llde 친t dem bredevid de gyllene b칛grar:
    Gick s친 en herold ofta ocks친, ih칛llande vinet.
    Trottsige friarne tr칛dde nu in; och alle p친 stunden
    Togo sig plats i ordenteligt skick p친 b칛nkar och stolar.  145
    Dem herolderne d친 tv칛ttvatten p친 h칛nderna h칛llde,
    Medan i korgarna br칬d tjenstflickorna r친gade 칬mnigt.
    Och till de f칛rdiga r칛tter, som vankades, h칛ndren de r칛ckte.
    Gossar derjemte ocks친 vinb친larna rikligen fyllde.
    Men lystm칛tet till dryck och till mat n칛r 칛ndtligen undf친tt  150
    Friareskaran, p친 annat begynte d친 h친gen att leka,
    B친de p친 s친ng och p친 dans, som 칛ro kalasernas smycken.
    Lade nu derf칬r herolden i Phemios' h칛nder den granna
    Cittran, och han bland friarne sj칬ng, allenast af n칬dtv친ng.
    S친ledes spelande st칛mde han upp, att herrligen sjunga.    155
    Men Telemachos talte d친 till klar칬gda Athene,
    H친llande hufvudet n칛ra, att ej de andre det h칬rde:

    Fremling, s친 k칛r, s칛g, vredgas du v칛l f칬r orden jag s칛ger?
    H친gen leker f칬r dessa p친 slikt, n친 s친nger och str칛ngspel,
    L칛tt, f칬rty de en ann mans gods on칛ppste f칬rt칛ra,         160
    Hvilkens hvitnade ben kanh칛nda f칬rmultna i regnet,
    Vr칛kta i land, eller ock kringv칛ltrar v친gen i hafvet.
    S친ge de honom en dag till Ithaka 친terkommen,
    Alle de 칬nskade sig, att snabbare vara p친 f칬ttren,
    츿n f칬rm칬gnare vara p친 kl칛der och gull helt s칛kert.        165
    Nu i sitt olycks칬de han dog; oss finns ej en enda
    Tr칬st mer, fast ock n친gon af jordbeboende menskor
    Sade, att han skall komma; hans hemkomstdag 칛r f칬rlorad.
    Men du, v칛lan mig detta f칬rt칛lj, och noga ber칛tta:
    Ho,, hvarifr친n 칛r du? hvar 칛r dig stad och f칬r칛ldrar?     170
    P친 hvad skepp 칛r du hit ankommen och huru ha sj칬m칛n
    Dig till Ithaka bragt? hvad tro de sig vara f칬r karlar?
    Ty jag f칬rmodar ej alls, att du hit, fotg친ngare, kommit.
    Detta 친t mig sannf칛rdigt ber칛tta, att v칛l jag m친 veta,
    Om du f칬r f칬rsta g친ngen 칛r h칛r, eller redan min faders    175
    G칛stv칛n; ty m친ng m칛nner f칬rut p친helsade v친rt hus,
    Andre ocks친, f칬rty umg칛ngsam med menskor var denne.

    Honom talte d친 till klar칬gda gudinnan Athene:
    Sannerlig skall dig detta jag h칬gst noggrannligen s칛ga;
    Mentes, den insigtsfulle Anchialos' son jag mig skryter   180
    Vara, och konung derhos f칬r de Taphiska roddarebussar.
    Just p친 stunden jag nu anl칛nde med skepp och kamrater,
    Seglande 칬fver den m칬rknande sj칬n till fremmande menskor,
    Efter koppar till Temesa; jern, det blanka, jag medhar.
    Skepp mitt st친r nu derborta vid landet, fjerran fr친n staden,  185
    Under det skogiga Neionberg, i hamnen vid Rheithros.
    Men g칛stv칛nner fr친n f칛dernas tid vi skryte oss vara,
    Fr친n urminnes, om ock du ginge och fr친gte den gamla
    Drotten Laertes; om hvilken de s칛ga att aldrig till staden
    Mer han kommer, men ensam, af kr칛mpor p친 landet besv칛ras,  190
    Jemte en gammal gumma, som mat 친t honom och dricka
    Framb칛r st칛ds, n칛r tr칬ttheten h친rdt angripit hans f칬tter,
    M칬dsamt kr칛lande kring p친 det v칛lomansade vinberg.
    Nu hitkom jag; f칬rty man sade att far din 칛r hemstadd
    Ren, men gudarne honom 칛nnu f칬rhindra fr친n hemkomst.      195
    Ty helt s칛kert ej d칬tt p친 v친r jord den 칛dle Odysseus,
    Utan, lefvande 칛n, qvarh친lls han p친 villande hafvet,
    Upp친 en kringsk칬ljd 칬, af elaka m칛nner och vilda
    Hindrad, hvilka -- ho vet? -- ovilliga drotten beh친lla.
    Men nu skall jag dig sp친 sannf칛rdligen, s친som i sinnet    200
    Mig od칬dlige l칛gga, och, s친som jag menar, det h칛nder,
    Fast jag ej sp친man 칛r, och ej s칛kert f칬rst친r mig p친 f친glar.
    Allsej l칛nge numera fr친n 칛lskade f칛dernejorden
    Blir han borta, om ock jernfjettrar betvingade honom;
    Ty m친nghittig 칛r han, och t칛nker v칛l ut, hur han hemfar.  205
    Men du, v칛lan, mig detta f칬rt칛lj, och noga ber칛tta,
    Om du, s친 stor en karl, 칛r son af sjelfste Odysseus:
    Ty du 칛r m칛rkligen lik, till de vackra 칬gon och hufvut'
    Honom; s친h칛r med hvaran umgingos vi m친nga g친nger,
    F칬rrn till Troia han seglade bort, dit 칛fven de andre     210
    Ypperste m칛n fr친n Argos p친 h친lkade skeppena foro.
    Sen har Odysseus aldrig jag sett, och mig han ej heller.

    Henne Telemachos nu, den f칬rst친ndige, svarte, och sade:
    Sannerlig, fremling, f칬r dig h칬gst noga jag 칛rnar ber칛tta.
    Mor min yrkar v칛l, att jag 칛r hans; mellertid jag ej saken  215
    K칛nner; ty troligen ingen 칛nnu sjelf vetat sin h칛rkomst.
    O, att jag vore likv칛l en son till n친gon af rika
    M칛nner, dem 친lderdomen vid egna besittningar tr칛ffat.
    Nu deremot den som vardt os칛llast bland d칬dliga menskor,
    Honom de kalla min far: det l칛nder till svar p친 din fr친ga.  220

    Honom talte d친 till klar칬gda gudinnan Athene:
    Visst ej gudarne hafva din sl칛gt namnl칬s f칬r en framtid
    Gjort; ty s친dan en man framf칬dde dig Penelopeia.
    Men du, v칛lan, mig detta f칬rt칛lj och noga ber칛tta,
    Hvad f칬r gelag, hvad hop 칛r deth칛r? hvad n칬dgar dig h칛rtill?  225
    Festm친l, eller ett br칬llop? F칬rty det 칛r v칛l ej bunklag.
    S친 storst친tligen synas de mig, och ut칬fver h칬fvan
    G칛sta i huset; en man helt visst slikt skulle f칬rtryta,
    S친ge han skaml칬sheten, och klokt칛nkt komme dem 칬fver.

    Henne Telemachos nu, den f칬rst친ndige, svarte, och sade:   230
    Fremling, emedan om detta du mig tillsp칬rjer och forskar,
    T칬r v칛l fordom v친rt hus otadeligt varit och 칛fven
    Rikt, s친l칛nge 칛nnu h칛r hemma den mannen f칬rdr칬jde.
    Nu helt annat besl칬ts af Gudar, som st칛mpla oss of칛rd,
    Hvilka ha honom gjort mer h칛nf칬rsvunnen 칛n alla           235
    Menskor; ty vore han d칬d, jag skulle s친 mycket ej gr칛mas,
    Om han i Troers land aflidit bland vapenkamrater,
    Eller 1 v칛nnernas h칛nder, en칛r han kriget beslutit:
    Skulle 친tminstone d친 Achaierne honom en grafv친rd
    Gjort, och sin son stor 칛ra f칬r kommande tider han vunnit.  240
    Nu p친 ett sn칬pligt s칛tt Harpyierna roffade honom;
    Oomtald, h칛nsvunnen, han dog, men sm칛rtor och jemmer
    Lemnade mig; dock nu jag ej honom suckande s칬rjer
    Endast; gudarne hafva mig gjort ock andra bekymmer.
    Ty de 칛dlingar alla, som ega p친 칬arna v칛lde,              245
    Upp친 Dulichion, Sama, och skogbevexta Zakynthos,
    츿fven samtlige de, som p친 klippiga Ithaka herrska,
    Desse f칬r mor min fjesa, och bringa oss alla p친 kneken.
    Hon afs칛ger sig ej det sk칛ndliga giftet, och gitter
    Slut ej g칬ra h칛rp친; mellertid de, frossande sl칬sa         250
    Gods mitt; snarligen 칛fven mig sjelf de skola f칬r칬da.

    Honom talade till, misstyckande, Pallas Athene:
    Ack, visst hade du mycket behof af Odysseus, den fjerran
    Stadde, som h칛nder lade upp친 de friare fr칛cka
    Ty om han, heml칛nd nu, i farstud칬rren derborta            255
    Stode, f칬rsedd med hjelm och med sk칬ld, samt lansarna tvenne,
    S친dan 칛nnu, som jag tillf칬rene sk친dade honom,
    Sig f칬rn칬jande hemma hos oss, och t칬mmande b칛garn,
    N칛r han fr친n Ilos, Mermeros' son, fr친n Ephyra l칛nde;
    Ty jemv칛l dit reste p친 snabba galejan Odysseus,           260
    Det mandr칛pande gift der s칬kande, att han det m친tte
    Ha, f칬r att kopparspetsade pilarna sm칬rja; men han ej
    Gaf, emedan han v칬rdade grannt st칛ds varande gudar;
    Men dock fader min gaf; ty han h칬gligen 칛lskade honom:
    Skulle nu slik upptr칛da bland friareskaran Odysseus,      265
    Alle de visst snard칬de och olycksfriare vore.
    Men i sanning ju detta beror af gudarnes allmakt,
    Om, hemkommen igen, han h칛mnas skall eller icke,
    Uti de egna salar, och dig jag bjuder bet칛nka,
    Huru du m친 ur salen sin kos de friare drifva.             270
    Vill du mig nu 친h칬ra, och akt mig gifva p친 orden?
    Sedan i morgon du kallat Achaiska drottarna samman,
    Ordet f칬rkunna dem alla, och gudarna vare dig vittnen.
    Friarne bjud, att sprida sig h칛n, hvaren till sitt eget.
    Mor din bjud, i fall nu dess hug ilf칛nas p친 gifte,        275
    Att till fadrens palats hon g친nge, den m칛ktiges, 친ter.
    Der de br칬llopet sen tillst칛lla, och ordna en hemgift,
    S칛rdeles rik, som det h칬fves att f칬lja den 칛lskade dottren.
    Men dig sjelf jag vill ge ett grundeligt r친d, om du tar det.
    Rusta med tjugu roddare ut den b칛sta galeja,              280
    Res s친 att eftersp칬rja din far, som l칛ngesen bortfor;
    Om bland d칬dliga n친gon ber칛ttar dig, eller du h칬rer
    S칛gn fr친n Zeus, som mest 친t menskorna tidender bringar.
    F칬rst d친 till Pylos res, och dig der hos Nestor befr친ga,
    Till Menelaos d칛n, blondlockiga kongen i Sparta.          285
    Ty bland kopparkl칛dda Achaierna sednast han hemkom.
    Skulle du nu f칬rnimma din faders lif och hans hemkomst,
    Sannerlig, fast ock qvald, du 칛nnu ett 친r m친 f칬rbida.
    Men om h칬ra du f친r, att han d칬tt och mera ej finnes,
    V칛ndande sedan igen till 칛lskade f칛dernejorden,           290
    M친 du 친t honom resa en v친rd, och beg친 hans begrafning
    Rikligen, s친som det h칬fs, och din mor bortge 친t en annan.
    Men n칛r detta du nu fullbordat hafver och verkst칛llt,
    Sedan b칬r du bet칛nka uti ditt sinne och hjerta,
    Huru i eget palats du friarna 칛ndtligen m친nde             295
    D칬da, med list, eller ock offentligt; du icke beh칬fver
    B칛ra dig 친t som ett barn, ty du 칛r ej mer vid de 친ren.
    Eller h칬rde du ej, hvad pris vann b친lde Orestes
    Inf칬r menniskor alla, d친 faderm칬rdarn han dr칛pit,
    Den sveksinnte Aigisthos, som dr칛pte hans ryktbara fader?  300
    츿lskade, du ocks친 (ty jag ser dig s친 stor och s친 vacker,)
    Tapper var, att hos sednaste sl칛gt man godt om dig s칛ge.
    Men jag redan begifver mig nu till snabba galejan,
    Och till de mina, kanske f칬r v칛ntningen h칬gligen ledsna.
    S칬rj f칬r dig sjelf, och noga bet칛nk de orden jag talat.   305
    Henne Telemachos nu, den f칬rst친ndige, svarte, och sade:
    G칛stv칛n, sannerlig du v칛lmenande detta har talat,
    Liksom en far till sin son, och aldrig jag gl칬mmer de orden.
    Men dr칬j qvar nu likv칛l, 칛nsk칬nt du s친 br친dskar med resan,
    Att du m친 bada dig f칬rst, samt sen, f칬rn칬jande sinnet,    310
    칀terg친 med en sk칛nk till galejan, gladlig i hjertat,
    Kostlig, ooh vacker sk칛nk, som st칛ds skall vara dig sk친pskatt,
    Gifven af mig; s친 pl칛r g칛stv칛nnen gifva sin g칛stv칛n.

    Honom svarade sen klar칬gda gudinnan Athene:
    Mig ej m친 du numer qvarh친lla, som tr칛ngtar att resa.      315
    Men den sk칛nk, ditt hjerta befaller dig 친t mig f칬r칛ra,
    Den m친 du ge, att jag hem f친r f칬ra, d친 친ter jag kommer,
    Tagande ock en s칛rdeles grann, som f칬rtjenar dig motsk칛nk.

    Hon, n칛r detta hon talt, bortgick, klar칬gda Athene,
    Och som en f친gel 친t himmelen fl칬g, men honom i hjertat    320
    Lade hon styrka och mod, p친minnande honom om fadren
    Mera 칛n n친nsin f칬rut; han, varsnande detta med tanken,
    H칛pnade mycket, f칬rty han en gud det anade vara.
    Genast till friarna nu sig begaf gudliknande mannen.
    Qvad f칬r dessa d친 just h칬gr칬stige s친ngarn; med tystnad    325
    Sutto de alle, och h칬rde; han sj칬ng om Achaiernas bittra
    Hemf칛rd, hvilken fr친n Troia beredde dem Pallas Athene.
    Men der i h칬gan loft 친h칬rde gudomliga s친ngen
    Drotten Ikarios' dotter, f칬rst친ndiga Penelopeia.
    Gick s친 utf칬re trappan, den h칬ga, i egna palatset,        330
    Icke allena, tillika ocks친 tv친 t칛rnor nu f칬ljde.
    N칛r hon till friarne sen nedstigit, den 칛dla bland qvinnor,
    Stod hon invid d칬rrposten utaf v칛lbyggda palatset,
    S칛nkande f칬r sitt anlete ned den gl칛nsande sl칬jan.
    Men vid hvardera sidan der stod en beskedelig t칛rna.      335
    Gr친tande sedan talte hon till den gudomliga s친ngarn:

    Phemios, visst m친ng andra de d칬dliges fr칬jder du k칛nner,
    Gudars och mennniskors verk, som s친ngarne herrligen qv칛da,
    N친got af dessa besjung, h칛r sittande, men de med tystnad
    Vinet dricke; du m친 upph칬ra med denna s친 sorgsna          340
    S친ngen, hvilken hos mig mitt hjerta i br칬stet best칛ndigt
    Qv칛ljer; ty mig mest tr칛ffat den of칬rgl칬mliga sm칛rtan.
    S친dant hufvud jag saknar, och alltid minns jag min make,
    Honom, hvars 칛ra sig vida i Hellas spridt och i Argos.

    Henne Telemachos nu, den f칬rst친ndige, svarte, och sade:   345
    Moder min, hvi misstycker du dock, att den 칛lsklige s친ngarn
    Roar oss, efter hjertats behag? Ju ej s친ngarne 칛ro
    Saker, men Zeus t칬rh칛nda ar saker, som s친dant f칬runnar
    칀t p친hittiga m칛n, som honom det t칛ckes 친t hvarje.
    Denne f칬rtycke man ej, att han sjunger de Danaers of칛rd.  350
    Ty den visan menskorne mer 칛n andra beprisa,
    Hvilken uti 친h칬rarnes krets af alla 칛r nyast.
    Derf칬r ditt hjerta och sinne ocks친 uth칛rde att h칬ra.
    Ej 칛r Odysseus den ende som hemkomstdagen f칬rlorat;
    Fingo sin bane ju ock m친ng andre m칛nner, vid Troia.       355
    Utan g친 till ditt rum, och sk칬t der 칛render dina,
    V칛fstoln 칛fvensom sl칛ndan, och tjenarinnorna mana
    Att till arbete g친; om saken m친 m칛nnerne v친rda
    Samtlige; mest dock jag. Ty min 칛r makten i huset.

    Hon f칬rv친nad och stum till kammaren 친ter begaf sig;       360
    Ty sin sons f칬rst친ndiga tal hon lade p친 hjertat.
    Men n칛r i h칬gan loft hon hade med t칛rnorna stigit,
    Sedan begret hon Odysseus, den 칛lskade maken, tills ljuflig
    S칬mn p친 dess 칬gonlock neds칛ndes af Pallas Athene.
    Friarne stojade qvar i de dunklande salarna hurtigt,      365
    칐nskande samtlige f친 vid henne hvila i b칛dden.
    Men Telemachos nu, den f칬rst친ndige, b칬rjade orda.

    Friare J till min mor, som egen en trottsande fr칛ckhet;
    L친tom oss g칛stande h칛r f칬rlusta oss, utan ett s친dant
    Stoj; ty herrligt ju 칛r det minsann, att h칬ra en st친tlig  370
    S친ngare, som han 칛r, med gudarne lik till sin st칛mma.
    Tidigt p친 morgonstunden vi m친ga oss samla till r친dslag
    Alle, att jag rent ut f친r eder min mening f칬rkunna,
    Att ur salarna g친; tillst칛llen er andra kalaser,
    Fr칛tande eget gods, omvexlande en med den andra.          375
    Om er detta likv칛l mer 칬nskeligt synes och b칛ttre
    Vara, att utan straff en endes besittning f칬rst칬ra,
    칐den! men jag anropar de alltid varande gudar.
    Om Zeus unnar en g친ng att lika m친 g칛ldas med lika,
    Visst oh칛mnade skolen J d친 i palatset f칬rst칬ras.          380

    Talade s친, och de alle med t칛ndren i l칛pparna beto,
    칐fver Telemachos undrande sig, att dristigt han ordat.

    Honom talte d친 till Antinoos, son af Eupeithes:
    Gudarne sjelfve, minsann, dig undervisa, att vara
    S친 storordig i mun, och prata s친 s칛rdeles dristigt.       385
    M친tto dig aldrig p친 Ithakas 칬 till konung Kronion
    G칬ra, ehuru hon 칛r, med f칬dslen, ditt f칛dernerike.

    Honom Telemachos nu, den f칬rst친ndige svarte, och sade:
    Blir du, Antinoos ond kanh칛nda f칬r det jag nu s칛ger?
    Visst jag Ithaka ville, om Zeus det unnar, besitta.       390
    Eller menar du det bland menniskor vara ett lappri?
    Sannerlig 칛r det ej slemt, att herrska; ty kongars palats strax
    Blir f칬rm칬get, de sjelfve ocks친 mer hedras 칛n andre.
    Men h칛r finnas likv칛l de Achaiers kongar i sanning
    Andre m친nge p친 Ithakas 칬, s친 unge som gamle.              395
    N친gon af dem det hafve, n칛r bortd칬tt 칛dle Odysseus.
    Jag likv칛l i v친rt hus skall herre vara, och herre
    칐fver de slafvar, som f친ngat 친t mig den 칛dle Odysseus.

    Honom Polybos' son, Eurymachos, svarte, och sade:
    Detta, Telemachos, ligger helt visst i gudarnes h칛nder    400
    Ho som p친 Ithakas 칬 skall vara Achaiernes konung;
    Sjelf m친 likv칛l du besitta ditt gods och beherrska ditt husfolk.
    Ej t칬r komma en man, som emot din vilja, med v친ldsmakt
    Godset rycker dig fr친n, s친 l칛nge v친r 칬 칛r befolkad.
    Men, k칛r칛lsklige, dig jag vill tillsp칬rja om g칛sten,      405
    Hvadan den mannen kom, och ifr친n hvad land han sig skryter
    Vara, och hvar hans f칛dernejord, hans st칛mma befinnes.
    Bragte han tidender med om din hem anl칛ndande fader,
    Eller kom han v칛l hit, f칬r att egna 칛render sk칬ta?
    Huru han hastigt ilade bort, och ej veta, hvem han var    410
    Fingo vi; dock han ej var till anletet lik med en usling.

    Honom Telemachos nu, den f칬rst친ndige svarte, och sade:
    Sannerlig, Eurymachos, 칛r f칬rlorad min faders igenkomst;
    Derf칬r jag litar ej mera p친 tidender, hvadan de komme,
    Icke jag aktar heller de gudabeslut, som min moder        415
    Kallande siaren hit i v친r sal, utforskar af honom.
    Denne 친t mig fr친n Taphos 칛r l칛nd, en f칛derne g칛stv칛n,
    Mentes, den insigtsfulle Anchialos' son han sig skryter
    Vara, och konung han 칛r f칬r de Taphiska roddarebussar.

    S친 nu Telemachos; dock i sin sj칛l han k칛nde gudinnan.     420
    Men de som v칛ndt sitt sinne till dansen och tjusande s친ngen,
    츿n f칬rlustade sig, af bidande aftonens p친komst.
    츿n de f칬rlustade sig, d친 den m칬rka aftonen p친kom.
    Sen f칬r att sofva en hvar sig 칛ndtligen makade hem친t.
    Och Telemachos dit, der p친 prydliga g친rden hans sofrum    425
    H칬gt var byggdt, p친 ett v칛lkringsk친deligt st칛lle, begaf sig
    Sjelf till hvila ocks친, omv칛lfvande mycket i sinnet.
    Bar s친 f칬r honom brinnande bloss den aktsama t칛rnan
    Eurykleia, en dotter till Ops, sjelf son till Peisenor,
    Henne med egna medel sig k칬pt tillf칬rne Laertes;          430
    Tjugu oxar han gaf, och hon var d친 blomstrande flicka.
    Likt med sin v칛rda gem친l i palatset han aktade henne,
    Delande aldrig dess b칛dd, och sin makas vrede s친 undvek.
    Hon medf칬rde de brinnande bloss, hon 칛lskade honom
    Ock bland t칛rnorna mest, och fostrat honom som liten.     435
    Nu han 칬ppnade d칬rrn till det v칛linr칛ttade sofrum,
    Satte p친 s칛ngen sig sen, afkl칛dande tr칬jan, den fina,
    Hvilken han lade i h칛ndren utaf klokr친diga gumman.
    Men d친 hon tr칬jan ihop v칛l vecklat och putsat beh칬rigt,
    H칛ngde hon henne p친 knaggen bredvid den pyntade s칛ngen,   440
    Gick s친 utur sofrummet, och drog till d칬rren med silfver
    Ringen, och sen med dess rem framsk칬t hon rigeln derjemte.
    Der helnattligt han nu, omt칛ckt med de finaste f친rskinn,
    V칛lfde den f칛rd i sitt sinne, som honom i Athene beb친dat.




Andra S친ngen.


    N칛r sig nu viste den tidiga, rosenfingrade Eos,
    Hastade upp fr친n sin b칛dd den 칛lskade son af Odysseus,
    Sedan han kl칛dt sig; och h칛ngde det eggiga sv칛rdet p친 axeln,
    Bandt ock sk칬na sandaler inunder de fylliga f칬ttren,
    Och ur sitt sofrum gick, jemlik med en gud till att p친se.   5
    Och s친 befallte han sen h칬gljudda herolderna genast
    Kalla till sammankomst h친rfagra Achaierna alla.
    Desse kallade alla, som ock f칬rsamlades skyndsamt.
    Men d친 de samlats redan, och hopf칬rsamlade voro,
    Sjelf han till samlingen gick, med kopparlansen i handen.  10
    Icke allena, ty tv친 snabbfotade st칬fvare f칬ljde.
    Och ett gudomligt behag utg칬t nu p친 honom Athene.
    H칛pnande s친g det samtlige folk till den kommandes m칬te.
    Satte sig ned p친 sin faders stol, och Geronterne veko.
    D친 begynte nu f칬rst friborne Aigyptios orda,               15
    Han som af 친lderdomen var kr칬kt, och visste s친 mycket.
    Ock hans 칛lskade son 친tf칬ljt gudmaken Odysseus
    Till sk칬nf친liga Ilion h칛n p친 de h친ldade skeppen,
    Antiphos, k칛mpen; men honom ihjelslog vilde Kyklopen
    Uti den h친liga grottan, och redde sin yttersta qv칛llsvard.  20
    Ock tre andra han hade; bland friarne en af den dvaldes,
    Eurynomos, men tv친 st칛ds blefvo vid f칛dernegodset.
    Dock han, sorgsen och klagande, ej sin Antiphos gl칬mde,
    Men t친rgjutande nu tog ordet, och b칬rjade tala:

    H칬ren mig nu Ithakesier ock, hvad jag 칛mnar er s칛ga!       25
    Aldrig skedde hos oss r친dsamling 칛nnu eller m칬te,
    Alltsen den 칛dle Odysseus p친 h친lkade skeppena bortfor.
    Ho har oss nu f칬rsamlat? och hvem p친kom s친 behofvet,
    Hvem bland de yngre m칛n, eller dem som gamlare 칛ro?
    Monne han tidender h칬rt om en hit ant친gande krigsh칛r,      30
    Dem han oss sade best칛mdt, d친 han f칬rr dem skulle f칬rnummit,
    Eller monne han annan en folksak n칛mner och kung칬r?
    Redlig synes han mig; allt godt han njute! 친t honom
    Zeus fullborde till lyckeligt slut, hvad han v칛lfver i sinnet!

    Sade. Odysseus' 칛lskade son j칛rtecknet f칬rn칬jde,           35
    Och han ej mera l칛nge der satt, men l칛ngtade tala.
    Steg s친 i samlingens midt, och spiran i handen emottog
    Af Peisenor, herolden, som visste de klokaste tankar.
    F칬rst derefter han v칛nde sitt tal till den gamle och sade:

    Gamle, den man 칛r ej fjerran, -- du sjelf det genast f칬rnimmer. -- 40
    Just jag folket f칬rsamlat, och mest p친kommer mig 칛ngslan.
    Jag ej tidender h칬rt om en hit ant친gande krigsh칛r,
    Dem jag er sade best칛mdt, d친 jag f칬rr dem skulle f칬rnummit,
    Icke heller jag annan en folksak n칛mner ooh kung칬r;
    Utan min egen sak, som mig of칛rd st칬rtat i huset,          45
    Tvefaldt; dels har jag mist den 칛dlaste far, som bland eder
    Samtliga f칬rr var kong, och likt en fader s친 godsinnt.
    Nu en vida st칬rre ocks친, som snarligt alldeles
    Hela mitt hus f칬rst칬r, och i grund f칬r칬der min lifskost.
    In p친 min mor, som ej vill, en skara af friare tr칛nger,    50
    S칬ner till s친dane m칛n, som h칛rst칛ds 칛ro de h칬gste.
    Desse r칛das att g친 till Ikarios' hus, som 칛r hennes
    Fader, att sjelf sin dotter han m친 utstyra med brudsk칛nk,
    Gifva 친t hvem han vill, som v칛l tackn칛melig kommer.
    Men nu i v친rt hus st칛ds qvardr칬jande dagar p친 dagar,       55
    Slaktande 친t sig oxar ooh f친r och getterna feta,
    H친lla de friska kalas, och dricka det gl칬dande vinet
    Skaml칬st; mycket f칬r칬ds mellertid, ty ej finnes en s친dan
    Man, som Odysseus var, of칛rden att v칛rja fr친n huset.
    Vi ej 칛ro i st친nd att v칛rja, och 칛fven h칛refter            60
    R칛ddningsl칬se vi bli, och ej alls f칬rst친 oss p친 n칬dv칛rn.
    Sannerlig slikt afv칛rjde jag visst, om jag egde f칬rm친ga.
    Outh칛rdliga 칛ro de saker som h칛nda, och nesligt
    Hela mitt hus f칬rst칬rts; ock borde ni sjelfve f칬rargas,
    Borde blygas ocks친 f칬r de h칛r kringboende menskor,         65
    Hvilka bo h칛romkring; och frukten f칬r gudarnes vrede;
    Kanske, f칬rgrymmade, 칛n de n칛psa s친 skamliga dater.
    B친de jag Zeus anropar, Olympiern, 칛fvensom Themis,
    Hvilken m칛nnernes r친d uppl칬ser, och bringar att sitta;
    Hejden er, v칛nner, och l친ten af h친rda bekymret mig ensam   70
    T칛ras, s친framt ej n친nsin min far, den 칛dle Odysseus,
    Har, fiendtelig, gjort fotbrynjta Achaierna illa,
    Och J, g칛ldande det, fiendtlige, illa mig g칬ren,
    Eggande dessa; f칬r mig l친ngt b칛ttre det vore i sanning,
    Att J skullen f칬rt칛ra b친d boskapshjordar och sk친pskatt.    75
    Ja, om J allt upp친ten, kanske snart f칬ljde betalning.
    Ty vi skulle i staden med ord ombedja s친 l칛nge,
    칀terfordrande v친rt, tills allt oss gifvits tillbaka.
    Nu obotliga sm칛rtor J mig inkasten i sj칛len.

    S친 han talade vred, och till marken sl칛ngde sin spira,     80
    Gjutande t친rar; det samtliga folk betogs d친 af miskund.
    Tego s친 alle de andre dervid; ej v친gade n친gon
    Endaste gifva Telemachos svar i kr칛nkande ordalag;
    Men Antinoos honom allen' tilltalte och svarte:

    Hvad har du sagt, h칬gpratig Telemachos, dristig i stormod,  85
    Skymfande oss! Du ville v칛l nog p친st칛nka oss skamfl칛ck.
    Saker 칛ro dig dock de Achaiiske friare icke,
    Utan din mor, som mer 칛n en ann f칬rst친r sig p친 r칛nker.
    Ty nu redan ha tre 친r g친tt, snart vandrar det fjerde,
    Sen den tid i Achaiernas br칬st hon hjertat bed친rar.        90
    Hopp hon 친t hvar man sk칛nker, och sig utlofvar 친t alla,
    S칛ndande tidender; dock helt annat dess sinne begrundar.
    S친 bland 칬friga svek hon fejande st칛mplade 칛fven:
    S칛ttande upp stor v칛f, hon i kammaren b칬rjade v칛fva,
    Fin, o칛ndeligt l친ng, och till oss hon talte och sade:      95
    Svenner, som frien till mig, d친 den 칛dle Odysseus nu h칛ng친tt,
    Biden p친 br칬llopet 칛n, och br친dsken ej, tills jag en likskrud
    F칛rdig arbetat, -- att icke mitt garn m친 칬das f칬rg칛fves, --
    칀t friborne Laertes, tilldess, att honom omsider
    Tager den l친ngutstr칛ckande d칬ds f칬rderfliga 칬de.          100
    Att ej i landet p친 mig Achaiinnorna m친ga f칬rargas,
    Om han f칬rutan t칛ckelse l친ge, som egde s친 mycket.
    S친 hon talte, hos oss manhaftige hjertat bevektes.
    Visserlig v칛fde hon nu om dagen p친 v칛fven, den stora,
    Men om n칛ttren den rispade opp, d친 hon facklorna framsatt.  105
    S친 hon i tre 친r svek oss med list, och bedrog de Achaier;
    Men n칛r fjerde 친ret nu kom, och tiderna kommit,
    Sade oss d친 bland t칛rnorna en, som grannligen visste,
    Och vi tr칛ffade henne, som rispade herrliga v칛fven.
    S친 hon slutade den, fast alls ej villig, af n칬dtv친ng.     110
    Dig ge friarne detta till svar, att v칛l du m친 veta
    Sjelf i din egen sj칛l, och Achaierne alle m친 veta:
    Skicka din moder h칛n, och befall att till make hon tager
    Honom, som fadren befaller, och som ock henne behagar.
    Men om hon l친ng tid 칛n utledsnar Achaiernas s칬ner,        115
    V칛lfvande s친dant i sinnet, som rikligt f칬rl칛nat Athene,
    Fyndigt vett, och derhos f칬rtr칛ffliga sl칬jdernas insigt,
    Svek derjemte, som aldrig vi h칬rt om en bland de fordna,
    Som, sk칬nfl칛tiga, h칛r tillf칬rene bott i Achaia,
    Tyro, och Alkmene, eller ock sk칬nfl칛tig Mykene:           120
    Ingen enda af dem de finter som Penelopeia
    Visste; men denna likv칛l sig ej till fromma hon utt칛nkt.
    Ty de skola din kost och ditt gods s친 l칛nge f칬rt칛ra,
    Som hon blifver vid detta beslut, det s칛kert en gud har
    Henne i sinnet laggt. Sig sjelf stor 칛ra m친h칛nda          125
    G칬r hon, men dig helt s칛kert f칬rlust af m친ngen besittning.
    Vi ej hem oss begifva, och annorst칛des ej heller,
    Innan hon gift sig med den af Achaierna, hvilken hon tycker.

    Honom Telemachos nu, den f칬rst친ndige svarte och sade:
    Ej, Antinoos, h칬fves, med v친ld utjaga ur huset            130

    Henne som f칬dt mig, och fostrat; m친 far min i fremmande l칛nder
    D칬tt eller lefva; mig blefve det sv친rt, att Ikarios g칛lda
    Drygt, om sjelf jag min mor med ber친dt mod jagade h칛dan.
    Ty af dess fader jag ondt f친r lida, och annat en gudom
    S칛nder, en칛r min mor de bistra Erinnyer beder,            135
    G친ende bort ur huset, och h칛md fr친n menniskor skall mig
    Drabba; och derf칬re jag ej n친nsin det ordet beb친dar.
    Men om sj칛len hos eder besitter den minsta f칬rsynthet,
    G친n mig ur salarna h칛n, tillst칛llen er andra kalaser,
    Fr칛tande eget gods, omvexlande en med den andra.          140
    Skulle et detta likv칛l mer 칬nskeligt synas och b칛ttre
    Vara, att utan straff en endes besittning f칬rst칬ra,
    칐den! men jag anropar de alltid varande gudar.
    Om Zeus unnar en g친ng att lika m친 g칛ldas med lika,
    Visst oh칛mnade skolen J d친 i palatset f칬rst칬ras.          145

    S친 Telemachos. 칐rnar ett par den dundrande gud Zeus
    Honom s칛nde att flyga fr친n h칬gsta toppen af berget.
    Desse fl칬go nu b친da en stund, s친 snabba som vinden,
    Sp칛nnande vingarna ut, helt n칛ra den ene den andra.
    Men d친 de kommit till midten utaf m친ngpratiga r친det,      150
    Sv칛ngde de sig omkring, och slogo med v칛ldiga vingar,
    S친go p친 allas hufvuden ned, och f칬rkunnade of칛rd.
    Och d친 med klorna de kinderna slitit, och halsarna s칬nder,
    Skyndade b친da 친t h칬ger igenom husen och staden.
    칐fver f친glarna h칛pnade alla, s친snart de dem varsnat,      155
    Samt i sin sj칛l omv칛lfde, hvad nu v칛l komme att h칛nda.
    Men d친 talte bland dem Halitherses, den 친ldrige 칛dling,
    Mastors son; ty allen' samtidiga menskor han vida
    Vann, b친d att f친glar k칛nna, och gudaorakel f칬rt칛lja.
    Han v칛lmenande ordade d친 bland dessa, och sade:           160

    H칬ren mig nu, Ithakesier, ock, hvad jag 칛rnar er s칛ga!
    Men f칬r friarne mest jag detta f칬rkunnar och talar;
    Ty dem v칛lfves en stor olycka; ty icke Odysseus
    L칛nge numer fr친n v칛nnerna 칛r, men vistas helt n칛ra
    N친gonst칛des, och reder demh칛r f칬rderfvet och d칬den        165
    Samtligen; men m친ng andra ocks친 olycka skall drabba,
    Oss som p친 Ithaka bo, det v칛lkringsk친dliga; derf칬r
    Grannt p친t칛nken, hur vi dem hejde; sig sjelfve de 칛fven

    Hejda m친ga; ty det v칛l blifver dem snarligt det b칛sta.
    Ty ej skall jag er sp친, okunnig, men v칛l erfaren;         170
    Ty jag menar, att allt fullbordats 칛fven 친t honom,
    S친som jag ordade d친, n칛r Argeierne h칛dan till Troia
    Samtlige foro 친stad, och med dem m친ngr친de Odysseus.
    Sade, att sen m친ng qval han lidit, och alla kamrater
    Mistat, skull' p친 det tjugunde 친r han, af ingen igenk칛nd,  175
    Komma till hemmet igen; det allt fullbordadt nu varder.

    Honom Polybos' son, Eurymachos, svarte, och sade:
    Gubbe, v칛lan, du kan just prophetera f칬r piltarna dina,
    Vandrande hem, att ej dem olycka m친 framdeles drabba.
    Vida b칛ttre 칛n du sp친r jag hvad detta betr칛ffar.          180
    F친glar, m친nga till tal, visst solens str친lar inunder
    Vanka, ej alla likv칛l betydelsefulla. Odysseus
    Dog l친ngt borta; o, att du ocks친 din bane med honom
    Undf친tt! icke du skulle d친 s칛rdeles prata orakel,
    Och ej egga Telemachos, nog dessutom f칬rtretad,           185
    Bidande n친gon sk칛nk 친t ditt hus, i fall han den g친fve.
    Men jag s칛ger dig rent; ock skall fullbordadt det varda:
    Om du den yngre man, du som vet b친d gammalt och mycket,
    칐fvertalar med listiga ord, och retar till vrede,
    Honom sjelf till en b칬rjan det blifver ganska f칬rderfligt;  190
    Dock han, f칬r desses skull, ej gitter det ringaste g칬ra.
    Men dig, gubbe, vi plikt p친l칛gge, och den skall du g칛lda,
    Harmsen i sj칛len minsann, och tung dig varder f칬rtreten.
    Inf칬r alla jag vill Telemachos gifva det r친det:
    Bjude han mor sin v칛nda igen till f칛dernehuset.           195
    Der de br칬llopet sen tillst칛lla, och ordna en hemgift,
    Rikeligt stor, som h칬fs medf칬lja den 칛lskade dottren.
    Ty jag menar att f칬rr Achaiernes s칬ner ej afst친
    Fr친n nog ledt frieri; vi r칛das allsicke f칬r n친gon,
    Ej f칬r Telemachos, fast칛n han 칛r storpratig, kant칛nka,    200
    Ej om oraklet vi heller oss bry, det du f칬r oss, gubbe,
    Sladdrar i v칛dret, och mera 칛nnu 친samkar dig h칛tskhet.
    Godset sn칬pligen 칛n skall t칛ras, och n친nsin ej undf친s
    Vederg칛llning, s친 l칛nge som hon f칬r Achaierna skjuter
    Br칬llopet upp; men vi, afbidande dagar p친 dagar           205
    H칛r, f칬r hennes behags skull, t칛fle, och icke till andra
    G친 vi, hvilka det vore en hvar tillst칛ndigt att 칛kta.

    Honom Telemachos nu, den f칬rst친ndige, svarte och sade:
    O du Eurymachos; och J trottsige friare alle,
    Detta ej mer jag beder er om, ej heller f칬rm칛ler,         210
    Ty ren gudarne veta deraf och alle Achaier.
    Men mig gifven en hurtig galeja och tjugu kamrater,
    Hvilka resan med mig hit친t fullborda och dit친t.
    Ty till Sparta jag nu vill fara och sandiga Pylos,
    Der f칬r att eftersp칬rja min far, som l칛ngesen bortfor,    215
    Om bland d칬dliga n친gon ber칛ttar mig, eller jag h칬rer
    S칛gn fr친n Zeus, som mest 친t menskorna tidender bringar.
    Skulle jag nu f칬rnimma min faders lif och hans hemkomst,
    Sannerlig, fast ock qvald, jag 칛nnu ett 친r vill f칬rbida.
    Men om h칬ra jag f친r, att han d칬tt och mera ej finnes,     220
    V칛ndande sedan hem till den 칛lskade f칛dernejorden,
    Skall jag 친t honom resa en v친rd, och beg친 hans begrafning
    Rikligen, s친som det h칬fs, och min mor bortge 친t en annan.

    N칛r nu detta han talt, han satte sig ned, och d친 uppsteg
    Mentor, en vapenbror till den tadelfrie Odysseus,         225
    Hvilken han uppdrog hela sitt hus, d친 han reste p친 skeppen,
    Att h칬rsamma den gamla, och allt orubbadt bevara.
    Han, v칛lmenande, talade d친 bland dessa, och sade:

    H칬ren mig nu, Ithakesier, ock, hvad jag 칛rnar er s칛ga!
    Huld, v칛lsinnad och v칛nlig numer ej vare en ende          230
    Skepterb칛rande kong, i sin sj칛l han ej vete hvad r칛tt 칛r,
    Men st칛ds vare han h친rd, och or칛ttr친dighet 칬fve.
    Ty ej minnes ju n친gon numera den 칛dle Odysseus,
    Bland det folk, som han styrde, och var s친 huld som en fader.
    Men jag de trottsige friarne ej missunnar det minsta,     235
    Att de f칬r칬fva v친ldsama verk, af idelig vanart.
    Ty de s칛tta sitt hufvud p친 spel, och v친ldsamt f칬rt칛ra
    Drotten Odysseus' hus, och de tro ej att n친nsin han kommer.
    Nu jag 칛r vred p친 det 칬friga folk, hurledes J alle
    Sitten s친 stume, och icke med ord ens agande hejden       240
    Friarne, f친 till tal mot er, som 칛ren s친 m친nga.

    Honom Euenors son, Leiokritos, svarte, och sade:
    Mentor, du olycksbringande tok, hvad har du v칛l ordat,
    Eggande dessa, att oss afspisa? det sannerlig sv친rt blir,
    Att vid ett g칛stbud strida emot flertaliga m칛nner.        245
    Ty om Odysseus sjelf, Ithakesiern, 칛fven igenl칛nd,
    Trottsiga friarne h칛r i sitt hus kalasande funne,
    Och i sitt sinne besl칬te att dem ur salen f칬rjaga
    Sannerlig gladde sig ej hans maka, fast mycket hon tr친nar,
    칀t den komma, men h칛r just finge han sn칬pelig 칛nda,       250
    Om med flera han stridde; du ej sakenligt har ordat.
    Men nu, v칛lan, kringspriden er folk, en hvar till sitt eget.
    Honom nog Halitherses till resan skyndar och Mentor;
    Vapenbr칬der ju 칛ro de tu, sen gammalt, 친t fadren.
    Dock jag menar, att han, qvarsittande, tidender l칛nge     255
    Bidar p친 Ithaka; ej fullbordar han n친nsin den resan.

    S친 han talte, och strax folksamlingen l칬ste derjemte.
    Och de till egna boningar nu kringspridde sig alle,
    Men till Odysseus' hus sig friarne 친ter beg친fvo.

    Gick s친 Telemachos d칛n afsides till stranden af hafvet,   260
    Tv칛ttade h칛ndren uti gr친 b칬ljan, och bad till Athene:
    H칬r mig, gudinna, o du, som i g친r p친helsade v친rt hus,
    Och som mig bj칬d, med galejan, upp친 det ruskiga hafvet,
    Resa, att fr친ga mig f칬re om l칛nge dr칬jande fadrens
    Hemkomst. Detta nu allt Achaierne s칬ka f칬rhala,           265
    Men dock friarne mest, h칬gmodige ut칬fver h칬fvan.

    S친 han bedjande talte. Athene nalkades honom,
    Liknande Mentor s친v칛l till gestalt, som 칛fven till st칛mma,
    Och hon h칬jde sin r칬st, och sade bevingade orden:

    Ej i en framtid blir du, Telemachos, feg eller ovis.      270
    Ja, om i dig 칛r gjutet din faders modiga sinne,
    츿r du s친dan han var, att ord fullborda och handling,
    D친 blir sannerlig icke din f칛rd olyktad och fruktl칬s.
    Men om du ej till honom 칛r son och Penelopeia,
    D친 jag ej tror, att du skall fullborda det som du 칛mnar.  275
    Ty f친 s칬ner minsann sin fader lika befinnas;
    S칛mre de fleste 칛ro, och f친 visst b칛ttre 칛n fadren.
    Men d친 du framdeles ej skall fegsinnt vara och oklok,
    Och dig ej heller Odysseus' f칬rst친nd s친 alldeles lemnat,
    Eger du hopp, att en g친ng fullborda dessa bedrifter.      280
    Derf칬re lemna derh칛n nu friarnes tanke och r친dslag,
    D친rarnes, ty r칛ttr친dige ej, ej kloke de 칛ro;
    Icke veta de alls af den svarta Kereu och d칬den,
    Som dem redan 칛r n칛ra, att alle p친 dagen f칬r칬das.
    Dig ej l칛nge skall dr칬ja numer den f칛rd, som du 칛mnar.    285
    Ty slik 칛r jag i sanning 친t dig en f칛derne g칛stv칛n,
    Som nog snabba galejan skall rusta, och sjelf med dig f칬lja.
    Men du till hemmet g친, och der bland friarna vistas,
    Rusta dig v칛gkost sedan, och allt l칛gg varligt i k칛rlen,
    Vinet i handtagskrukor, och korngryn, m칛rgen hos m칛nner,  290
    I t칛ttslutande skinn; men jag bland folket kamrater
    Skall, v칛lvilliga, dig hopsamla. Galejor v칛l finnas
    M친nge p친 kringsk칬ljd Ithakas 칬, b친d nya och gamla.
    Henne, som st친tligast 칛r, jag sjelf bland dessa dig utser.
    Rustade, skyndsamt l칛gge vi ut p친 det villande hafvet.    295

    S친 nu Athenaie, Zeus' dotter, och l칛nge ej mera
    Dr칬jde Telemachos qvar, d친 gudinnans st칛mma han 친h칬rt;
    Utan han gick att f칬rfoga sig hem, i hjertat bedr칬fvad.
    Fann s친 de trottsige friarnes hop i salarna 친ter,
    Fl친ende getter, och sk친llande svin derjemte p친 g친rden.    300
    Antinoos gick leende rakt till Telemachos' m칬te,
    H칛ngde sig fast vid hans hand, och talade orden, och sade:

    Telemachos, h칬gpratig, till mod okuflig, ett annat
    Ondt m친 du ej anst칛mpla i sinnet med ord eller gerning,
    Utan 칛t du bara och drick, som 칛fven tillf칬rne.           305
    Detta dig allt helt visst de Achaier skola f칬rskaffa,
    B친de galeja och 칬nskliga m칛n, att snarligt du kommer
    Till gudskyddade Pylos, p친 s칛gn om herrliga fadren.

    Honom Telemachos nu, den f칬rst친ndige, svarte och sade:
    O Antinoos, icke mig h칬fs, att 친t eder, s친 b친la,          310
    Ge, ovillig, kalas, och i maklighet h친lla mig munter.
    츿r det ej nog, att tillf칬rne J 칬dden s친 m친nga af mina
    Herrliga gods, d친 칛nnu jag var barn, J giljande m칛nner?
    Nu, d친 jag redan 칛r stor, och, h칬rande talet af andra,
    Det uppfattar, och mig ren vexer modet i barmen,          315
    Fresta jag skall, att s칛nda p친 er olyckliga Kerer,
    Om jag till Pylos far, eller ock blir hemma i landet.
    Ja, jag res, och den f칛rd blir fruktl칬s ej, som jag omn칛mnt,
    Res p친 beting; ty galeja ej jag, ej roddare eger
    Sjelf; s친 eder i sanning det synts mer b친tande vara.      320

    Sade; och drog sin hand ur Antinoos' hand i detsamma
    L칛tt, och i huset de giljande m칛n bestyrde om m친ltid.
    Desse begabbade honom, och yttrade skymfliga orden;
    S친 nu m친ngen ibland stortrottsiga svennerna sade:

    Sannerlig 칬fvert칛nker oss d칬d Telemachos ifrigt;          325
    Antingen bringar han hjelpare hit fr친n sandiga Pylos,
    Eller fr친n Sparta kanske; ty nu han 칛flas f칬rskr칛cligt;
    Eller till Ephyra ock han 칛rnar, det b칬rdiga landet,
    Resa, i mening att d칛n lif칬dande gift med sig h칛mta,
    Kasta i blandningssk친len, och g친 f칬rg칬ra oss alla.        330

    Annan 친ter ibland stortrottsiga friarne sade:
    Ho kan veta, om icke han sjelf p친 det h친lkade skeppet,
    L친ngt fr친n v칛nnerna, d칬r, kringvankande, liksom Odysseus?
    S친 칛n mer derjemte f칬r oss han 칬kte besv칛ret.
    Ty f칬rst delte vi ju hans samtliga skatter, och sedan     335
    G친fve 친t mor hans huset; och den som henne vill 칛kta.

    Talte; och han steg ned i sin fars h칬gtakiga, vida
    Sofrum, der b친d koppar och guld f칬rvarades h칬gtals,
    Kl칛der, i kistorna med, och i m칛ngd v칛lluktande olja.
    K칛rl med gammalt vin, v칛lsmakeligt, 칛fven derinne         340
    Stodo, en om칛ngd gudarnes dryck f칬rborgande inom,
    St칛llde i rad mot v칛ggen, i h칛ndelse drotten Odysseus
    Hem anl칛nde en g친ng, sen m친nga strapaser han utst친tt.
    Riglade d칬rrar, och t칛tt anpassade, funnos der 칛fven,
    Dubbla, och hush친lsqvinnan derinne b친d n칛tter och dagar   345
    Dvaldes, som h칬gst omhugsamt p친 allt tog grannligen vara,
    Eurykleia, en dotter till Ops, sjelf son till Peisenor.
    Henne Telemachos d친 tilltalade, kallad i kammarn:
    Mor min, v칛lan mig vin i handtagskrukorna p친fyll,
    Ljufligt, som 칛r n칛st det v칛lsmakligast, hvilket du g칬mmer,  350
    V칛ntande v친r olycklige drott, om n친nsin han kommer,
    츿dle Odysseus, hem, undsluppen Kerer och d칬den.
    Tolf m친 du fylla, och samtliga v칛l tillt칛ppa med locken.
    H칛ll sen uti v칛ls칬mmade skinn derjemte mig korngryn;
    Tjugu m친tt m친 du taga utaf qvarnmalade godset.            355
    Sjelf du det ensam vete, och allt storst친tligt bestyres.
    Ty jag i afton 칛nnu det skall afh칛mta, s친snart som
    Modren stigit ditupp i sitt loft, ock t칛nker p친 hvila.
    Ty jag till Sparta begifver mig h칛n, och till sandiga Pylos,
    Fr친gande om min fars hemresa, derest jag f칬rnimmer.       360

    Sade. Och Eurykleia, den 칛lskade fostrerskan, storgret,
    Och, sig jemrande, talade hon bevingade orden:

    Hvi har, 칛lskade barn, dig s친dan tanke i sinnet
    Kommit? och hvart vill du resa ditut kring vidaste verlden,
    Du k칛r칛lsklige, ende? Ty l친ngt fr친n f칛dernelandet         365
    츿dle Odysseus 칛ndat sitt lif bland fremmande menskor.
    Desse, s친 snart som du res, uppt칛nka dig sedan din of칛rd,
    Att du med list m친 d칬das; och sen allt detta de dela.
    Stanna du qvar, och sitt vid ditt gods; dig icke det anst친r,
    Att p친 den 칬dsliga sj칬n ondt lida, och irra omkring der.  370

    Henne Telemachos nu, den f칬rst친ndige, svarte, och sade:
    Tr칬sta dig, mor! Ej utan en gud 칛r detta beslutet.
    Men mig sv칛r, att ej orda h칛rom f칬r egen min moder,
    F칬rrn d친 den elfte dag eller tolfte redan 칛r kommen,
    Eller hon sjelf mig l칛ngtar att se, och h칬rt att jag bortrest;  375
    Att hon ej gr친tande m친 f칬rderfva sitt anlet, det fagra.

    Talte; och gudarnes vigtiga ed den gamle nu afgaf.
    Men s친snart som hon svurit, och eden lyktat beh칬rigt,
    Fyllde hon strax derupp친 i handtagskrukorna vinet,
    H칛llde 친t honom uti v칛ls칬mmade skinnen ock korngryn.      380
    In i rummen Telemachos gick, och med friarne dvaldes.

    Annat begrundade d친 klar칬gda gudinnan, Athene.
    Hon, Telemachos lik, 칬fverallt i staden omkringgick,
    Och, vid hvarendaste man qvarstannande, talade ordet;
    Bj칬d dem om aftonen sig f칬rsamla p친 snabba galejan.       385
    Nu hon af Phronios' herrliga son, Noemon, beg칛rte
    Snabba galejan, men han ock villig detta sig p친tog.

    Ned gick solen, och stigarne ren f칬rskuggades alla.
    Och d친 drog hon i sj칬n den snabba galejan, och allsk칬ns
    Redskap lade deri, som toftade skepp med sig f칬ra.        390
    Bragte s친 ytterst i hamnen; omkring de hurtige bussar
    Mangrannt samlade sig; och en hvar uppmante gudinnan.

    Annat begrundade d친 klar칬gda gudinnan Athene,
    Och till Odysseus' hus, den herrliges, st칛llde hon kosan.
    Derst칛ds gj칬t hon en ljufvelig s칬mn p친 giljareskaran,     395
    Dref dem rusiga kring, och b칛grarna st칬tte ur h칛ndren.
    Desse i sta'n hit och dit att sofva sig skyndade; l칛nge
    Mer de ej dr칬jde; p친 칬gonens lock nedf칬ll dem ju s칬mnen.
    Men till Telemachos talade nu klar칬gda Athene,
    Kallande honom ut ur de boningsbeqv칛mliga salar,          400
    Mentor lik, ej blott till gestalt, men 칛fven till st칛mma:

    O Telemachos, redan f칬r dig fotbrynjte kamrater
    Sitta vid 친rorna, bidande af din snarliga ankomst.
    L친tom oss derf칬re g친, och ej mer uppskjuta v친r resa.

    Talade s친; och f칬rut nu vandrade Pallas Athene            405
    Skyndsamt; sen han f칬ljde ocks친 gudinnan i sp친ren.
    Men s친snart nu desse till sj칬n anl칛ndt och galejan,
    Funno p친 stranden de ren sk칬nlockiga resekamrater.
    Dem Telemachos' heliga kraft tilltalade 칛fven:

    Kommen, v칛nner, och hit v칛gkosten l친tom oss bringa!       410
    Allt 칛r i salen tillreds, men mor min vet ej det minsta,
    Ej tjenarinnornas hop; blott en om saken har kunskap.

    Talade s친, och f칬rde dem an; de f칬ljde tillika.
    De nedburo d친 allt, och uti v칛ltoftig galeja
    Lade p친 s친dant s칛tt, som Odysseus' son dem befallte.      415
    Steg nu Telemachos sedan ombord, och Athene f칬rutgick,
    Satte i skeppets akter sig ned, och n칛ra till henne
    Sig Telemachos satte, och bakstamst친gen de l칬ste,
    Stigande 칛fven om bord, och togo p친 tofterna platser.
[...]
    Der sig 칛fven befann en Sikeler gumma, som gubben         210
    K칛rv칛nskapligen sk칬tte, p친 landet, fjerran fr친n staden.
    Nu Odyseus till sin son och tjenarne talte, och sade:

    Till v칛lbyggda palatset p친stund f칬rfogen er alla,
    Och oss till m친ltid slakten af galtarna den som 칛r fetast;
    Jag deremot vill ge mig 친stad, f칬r att pr칬fva min fader.  215
    Om han mig k칛nner igen, och med 칬gonen sina f칬rnimmer,
    Eller ej k칛nner mig mer, som dr칬jde s친 l칛nge ifjerran.

    Ordade s친; och 친t tjenarne gaf sin krigarerustning,
    Desse gingo derhos till palatset strax; men Odysseus
    Till m친ngfruktiga g칛rdet, att pr칬fva sin fader, begaf sig.  220
    Dock han ej Dolios fann, d친 han tr칛dde i rymliga parken.
    Icke af tjenarne en, ej heller hans s칬ner, men desse,
    Att t칬rnruskor sig samla, som blefve ett st칛ngsel 친t g칛rdet,
    Bortg친tt hade; den gamle f칬r dem sjelf visade v칛gen.
    Fadren allena han r친kte uti sk칬nordnade g칛rdet,           225
    Skottande kring ett tr칛d; lifrocken, han hade, var smutsig,
    Flickad, och otillst칛ndig; omkring smalbenet han bundit
    Flickade oxhudssockor ocks친, att ej samka sig rispor,
    F칬r t칬rnbuskarnas skull, ock handskar p친 h칛ndren; men 칬fverst
    Getskinnshjelmen p친 hufvut han bar, som 칬kade jemmern.    230
    N칛r nu din fader han s친g, m친ngpr칬fvade, 칛dle Odysseus
    H칛rjad af 친lderdom, och med mycken jemmer i sinnet,
    Under ett p칛rontr칛d han stannade, gjutande t친rar.
    Och han begrundade sedan uti sin sj칛l, och sitt sinne,
    Anten att kyssa sin far, samt sluta i famnen, och allting  235
    S칛ga, huru han kommit och l칛ndt till f칛dernejorden;
    Eller att f칬rst utfr친ga, och om alltsamman besp칬rja.
    F칬r den begrundande s친 mer gagneligt syntes det vara,
    Att till en b칬rjan s칬ka likv칛l utforska med stickord.
    T칛nkande s친, mot honom gerad gick 칛dle Odysseus.          240
    H친llande hufvudet b칬jdt ned친t, han gr칛fde kring tr칛det,
    Men framtr칛dande ordade nu den lysande sonen:

    Gamle, hos dig okunnighet ej sig r칬jer, att v친rda
    Parken, men v칛l sin sk칬tsel han f친r; och icke det minsta,
    Icke en blomma, en ranka, ett fikonat칛d, ell' olivtr칛d,   245
    Icke ett p칛rontr칛d, eller b칛nk 칛r utan sin sk칬tsel.
    Dock jag vill s칛ga en sak; men vredgas ej derf칬r i sinnet!
    Sjelf god v친rd du ej eger; och 친lderdomen, den bistra,
    Trycker dig, smutsig du 칛r, och otillst칛ndigt dig kl칛der.
    Icke f칬r l칛ttjans skull om dig ej v친rdar din herre;       250
    Tjenaremessigt hos dig dessutom ej r칬jes att sk친da,
    Hvarken till vext eller skick; fastmera du liknar en konung.
    S친dan liknar du just, som, sedan han badat, och 칛tit,
    Sofve i mjukaste b칛dd; ty s친dan 칛r gubbarnes vana.
    Men du, v칛lan, mig detta f칬rt칛lj, och noga ber칛tta:       255
    Hvilkens tjenare 칛r du? 친t hvem omv친rdar du parken?
    Ock mig detta f칬rt칛lj sannf칛rdigt, att v칛l jag m친 veta,
    Om vi till Ithaka verkligen l칛ndt, som f칬r mig ber칛ttar
    Denne man, hoptr칛ffad med mig, kringvandrande h칛rst칛ds,
    Ej just s칛rdeles klyftig; ty ej han gittade allting       260
    S칛ga, ej heller mitt tal 친h칬ra, d친 honom jag sporde
    Om g칛stv칛nnen, ifall 칛nnu han lefver och finnes,
    Eller 칛r redan d칬d, och uti osynliges g친rdar.
    Ty jag s칛ger dig rent; gif akt du, och h칬r hvad jag talar:
    Fordom en man mottog jag som g칛st i f칛dernelandet,        265
    Som var kommen till oss; och aldrig en d칬delig fremling
    Till mitt hus mer 칛lskad 칛nnu tillf칬rene l칛nde.
    Han fr친n Ithaka skr칬t sin 칛tt h칛rstamma, och sade,
    Att Laertes, Arkeisios' son, m친nd' vara hans fader.
    Honom hem till mitt hus jag f칬rde, och g칛stade kostligt   270
    K칛rv칛nskapligen sk칛nkande m친ngt, som fanns i palatset;
    Ock g칛stsk칛nker 친t honom jag gaf, allt s친som det h칬fdes;
    Sju talenter utaf det v칛larbetade gullet,
    Gaf en blandningspokal, helsilfverne, blomstergraverad,
    Enkelkappor ett dussin, och likas친 m친nga tapeter,         275
    Kostliga mantlar liks친, lifrockar derjemte ett dussin;
    Dessutom qvinnor jemv칛l vankfria och sl칬jdef칬rfarna,
    Dejliga, fyra till tal, dem helst utv칛lja han ville.

    Honom h칛rp친 gaf fadren till svar, utgjutande t친rar:
    Fremling, du kommer minsann till det land, om hvilken du sp칬rjer,  280
    Nu dock v친ldsame m칛n och trotsige hafva det inne,
    Och du f칬rg칛fves deder otaliga sk칛nkerna gifvit.
    Ty om du honom lefvande r친kt i Ithakas bygder,
    Rikt umg칛llande dig med sk칛nker, han visserlig afs칛ndt,
    Och gnd pl칛gning; ty detta 칛r r칛tt 친t den som begynte.    285
    Men du, v칛lan, mig saken f칬rt칛lj, och noga ber칛tta,
    Hvilket 칛r 친ret som g친r, sen du undf칛gnade honom,
    Din olycklige g칛st, min son, om n친nsin han var det,
    Den os칛lle? som, l친ngt fr친n f칛dernejord och fr친n v칛nner,
    Antingen fiskarne 친to i sj칬n, eller ocks친 p친 landet       290
    Vardt han f칬r hundar och f친glar ett rof; men icke hans moder
    Honom v친rdande gret, eller far, vi som voro f칬r칛ldrar;
    Makan, den utstyrsrika, f칬rst친ndiga Penelopeia,
    Icke p친 b칛dden begret sin gem친l, som henne det anst친tt,
    Tryckande 칬gonen till, slik 칛ra de d칬da ju tillh칬r.       295
    츿fven detta mig s칛g sannf칛rdigt, att v칛l jag m친 veta:
    Ho 칛r du? hvarifr친n? hvar har du din stad och f칬r칛ldrar?
    Hvar st친r snabba galejan i hamn, som hit dig har bringat,
    Samt gudlika kamraterna med? eller kom du, en f칛rdsman,
    Hit p친 fremmandes skepp, som dig landsatte, och reste?    300

    Honom svarande talade till m친ngr친de Odysseus:
    Detta till punkt och till pricka 친t dig jag 칛rnar ber칛tta.
    Jag fr친n Alybas 칛r, der st친telig borg jag besitter,
    Till Apheidas en son, Polypemonidiska drotten;
    Men jag heter Eperitos sjelf; mig 친ter en gudom           305
    Fr친n Sikanien jagade vill, o칛rnad, till eder,
    Och galejan min ligger vid land afl칛gset fr친n staden.
    Men f칬r Odysseus detta 칛r re'n bland 친ren det femte,
    Sedan ifr친n mitt f칛derneland han reste, och bortfor,
    Den os칛lle; likv칛l med lycksama f친glar han skildes.       310
    H칬gerifr친n, 친t hvilka jag glad aff칛rdade honom;
    Gladlig reste han sjelf, och 칛nnu vi hoppades hjertligt
    M칛ngas i g칛stv칛nskap, samt herrliga sk칛nker f칬r칛ra.

    Sade; och sm칛rtans moln, det svarta, beh칬ljde Laertes,
    Hvilken i h칛nderna tv친 upptog utkolnade askan,            315
    P친 sitt gr친nade hufvud den gj칬t, och suckade h칬gljuddt.
    Och Odyseus vardt r칬rd, och n칛san igenom f칬r honom
    Tr칛ngde en v친ldsam suck, d친 han s친g sin 칛lskade fader;
    Strax nu han rusade fram, omfamnande kysste, och sade:

    Just densamme, min fader, 칛r jag, om hvilken du sp칬rjer,  320
    Och p친 det tjugonde 친ret jag kom till f칛dernejorden.
    Men upph칬r med din gr친t, och lemna den t친riga sorgen.
    Ty dig s칛ga jag vill, och s칛rdeles m친ste vi skynda?
    Samtlige friarne jag i salarna v친ra har nedgjort.
    Samt hjertfr칛tande skymfen och sk칛ndliga bragderna h칛mnats.  325

    Honom Laertes genm칛lte derefter, och sade:
    Om d친 nu 칛r Odyseus, min son, som 칛ndtligen hitl칛ndt,
    N칛mn mig ett tydeligt tecken p친stund, att jag tror hvad du s칛ger.

    Honom svarte, och talade till m친ngr친de Odysseus:
    Sk친da med 칬gonen f칬rst det 칛rr, som mig gaf p친 Parnesos,  330
    N칛r jag var faren dit, vildsvinet med tanden, den hvita,
    Fordom; ty d친 aff칛rdade mig och v친rdade modren

    Till morfar Autolykos d친, att jag skulle de sk칛nker
    Taga, dem han hitrest, mig lofvat hade, och tillsagt.
    Dock, jag vill tr칛den jemv칛l i den v칛lplanterade parken   335
    T칛lja, dem du tillf칬rne mig gaf, och jag allt beg칛rte,
    D친 jag dig barnslig f칬ljde, och vi framgingo emellan
    Tr칛na, och du uppn칛mnde f칬r mig och t칛ljde dem alla.
    Tretton p칛rontr칛d du mig gaf, och aplarna tio,
    Fyrtio fikontr칛d, och lofte mig 칛fven f칬r칛ra              340
    Vinberg femtio stycken; till bergning dugligt hvartenda
    Var; och allt slags drufvor p친 dem derjemte befinnas,
    D친 n칛r ofvanifr친n Zeus' stunder med mognaden komma.

    Sade; och fadrens kn칛n sig l칬ste och hjertat, en칛r han
    Tecknen k칛nde igen, som grannt uppr칛knat Odysseus,        345
    Nu kring sonen han armarna lade; och gubben intill sig,
    Den afsvimmande, drog m친ngpr칬fvade; 칛dle Odysseus.
    Men d친 han sansade sig, och besinningen v칛cktes i hjertat,
    칀terigen med f칬ljande ord tilltalte han sonen:

    Zeus, visst 칛ren J, gudar, 칛nnu i h칬ga Olympen,           350
    Om nu sitt 칬fverd친d de sk칛ndlige friarne umg칛llt.
    Dock jag h칬gligen r칛ds i min sj칛l, att snarligen komma
    Hit Ithakesier alle, och bud aff칛rda derjemte
    Till Kephallenernes st칛der enhvar, med maning till h칛rnad.

    Honom svarte, och talade m친ngr친de Odysseus:               355
    Tr칬sta dig, m친 ej detta du alls dip l칛gga p친 sinnet,
    Utan l친tom oss g친 till huset, som ligger vid parken,
    Dit Telemachos jag, svinherden och oxarnes herde
    S칛nde f칬rut, att de skulle ihast anr칛tta en m친ltid.

    N칛r s친lunda de talt, de gingo till granna gemaken         360
    Och n칛r de kommit hade i boningsbeqv칛mliga rummen,
    Funno de Telemachos, svinherden och oxarnes herde,
    Sk칛rande k칬ttet f칬re, och m칛ngande gl칬dande vinet.
    Men storsinnt Laertes emellertid i dess boning
    Tvagde en Sikeler t칛rna, och smorde med doftande oljan;   365
    Svepte en prydlig mantel omkring; och Athene, som n칛ra
    Stod, f칬r칬kade lemmarnas kraft f칬r m칛nnernas herde,
    Gjorde st칬rre att sk친da, 칛n f칬rr, och stoltare 칛fven.
    Ur badkaret han steg, och honom beundrade sonen,
    N칛r od칬dliga gudarna lik han sk친dade klarligt;            370
    H칬jde s친 칛fven sin r칬st, samt talade vingade orden:

    Fader, isanning har n친gon ibland st칛dsvarande gudar
    B친de till vett och gestalt dig yppare gjort till att p친se.

    Honom Laertes, den f칬rst친ndige, svarade sedan:
    Hade jag, fader Zeus, och Athenaie och Apollon,           375
    Som d친 jag Nerikos tog, den boningsbeqv칛mliga staden,
    Upp친 Epeiros' kost, Kephalleniske k칛mparnes h칬fding,
    Hade jag s친dan ig친r hos dig, i salarna v친ra,
    B칛rande vapen p친 axlarna st친tt, och mot friarnes skara
    K칛mpat, skulle minsann jag kn칛na f칬r m친ngen af dessa      380
    Uti salarna kn칛ckt, och du dig f칛gnat i hjertat.

    S친 nu de b친da med s친dana ord tilltalte hvarandra.
    Men d친 de andre sitt v칛rf full칛ndat, och r칛tterna tillredt,
    Satte sig samtlige ned i en rad p친 bankar och stolar,
    Frestande sedan upp친 anr칛ttningen. Tr칛dde s친 n칛ra        385
    Gubben Dolios fram, derhos ock Dolios' s칬ner,
    Af sitt arbete tr칬tte; ty dem upps칬kte, och inbj칬d
    Modren, Sikeliska gumman, som dem uppfostrat, och gubben
    K칛rv칛nskapligen sk칬tte, d친 친lderdomen betryckte.
    N칛r Odyseus de s친go allts친, och m칛rkte i sinnet,          390
    Stodo de alla f칬rbluffade der, men genast Odysseus,
    Smekande dem med v칛nliga ord tilltalte, och sade:

    Gubbe, s칛tt dig tillbords, och l칛ggen 친sido er h칛pnad!
    Ty ren 칬nskande l칛nge, att med m친ltiden begynna,
    Dr칬je vi dock i salarna 칛n, st칛ds bidande eder.           395

    Sade; och Dolios steg rakt fram, utstr칛ckande h칛ndren
    B친da; och fattade d친 Odyseus vid h칛ndren och kysste,
    H칬jde derjemte sin r칬st, samt talade vingade orden:

    츿lskade, d친 du hithem h칬g칬nskelig l칛ndt f칬r oss alla,
    Hvilka ej trodde det mer, och gudarne sjelfve dig bringat,  400
    Hell dig, och trefaldt hell, och gudarne gifve dig lycka!
    Ock mig detta f칬rm칛l sannf칛rdigt, att v칛l jag m친 veta,
    Om hon s칛kert nuredan, f칬rst친ndiga Penelopeia,
    Vet, att du 친terv칛ndt, eller skole vi skicka ett s칛ndbud?

    Honom svarande talade till m친ngr친de Odysseus:             405
    Gamle, hon k칛nner det re'n; hvi skulle du derom bestyra?

    Sade; men han sig satte upp친 v칛lbonade stolen.
    Dolios' s칬ner ocks친 v칛lkomnade bolde Odysseus
    Sammalunda med orden, och kramade hjertligt hans h칛nder,
    Och sig satte i rad vid Dolios sedan, sin fader.          410
    S친 de i salen samtligen vid bordet bestyrde.

    Ryktet gick, mellertid, som ett s칛ndbud, staden igenom,
    B친dande friarnes hiskliga d칬d och bane f칬r alla.
    De som h칬rde derom spatserade h칛dan och d칛dan,
    Framf칬r Odysseus' hus, med jemmer och suckan och ol친t.    415
    Liken ur huset buro de ut, och alla begrofvo;
    Dem fr친n fremmande st칛dar enhvar de 친t skeppare g친fvo,
    Att till sitt hem aff칬ras, och buro p친 snabba galejor.
    Sjelfve de gingo tilltorgs, mangrannt, med be칛ngslade hjertan.
    Men d친 de hade sig samlat, och alle f칬rsamlade voro,      420
    Reste sig upp Eupeithes i hopen, och b칬rjade orda:
    Ty ohejdelig sorg l친g honom i sinnet, f칬r sonen,
    Antinoos, som f칬rst nedgjordes af 칛dle Odysseus.
    Gjutande t친rar f칬r denne, han h칬jde sin stamma, och sade;

    V칛nner, Odysseus minsann stort d친d med Achiverna stemplat;  425
    M친nga och modiga m칛n p친 galejorna med sig han f칬rde,
    칐dde de h친lkade skeppen, och folken f칬rsatte i of칛rd;
    Och vid sin 친ferkomst Kephallenernas f칬rstar han dr칛pte.
    D칛rf칬r v칛lan, f칬rrn han till Pylos snarligen flyktar,
    Eller till herrliga Elis ocks친, der Epeierne herrska,     430
    Ryckom 친stad; ty eljes vi st칛ds vanb칬rdinga 칛re.
    Visst en nesa 칛r slikt f칬r kommande menskor att h칬ra,
    Ja, om p친 s칬ners dr친pare vi och p친 br칬ders ej vilje
    H칛mnas, 친tminstone mig i sinnet ej ljufligt att lefva
    Vore, men heldre, Ja f칬rr, jag 칬nskade bo hos de d칬da.    435
    Ryckom 친stad, att ej desse f칬rut dit칬fver m친 hinna!

    Gr친tande talte han s친; medlidande grep d친 Achaier.
    Tr칛dde d친 n칛ra intill dem Medon och gudomlige s친ngarn
    Ut ur Odysseus' rum, n칛r s칬mnen hade dem l칛mnat.
    Midt i hopen de stodo; enhvar vardt slagen af h칛pnad.     440
    Och d친 talte bland alla Medon, den vise herolden:

    Lyssnen till mig, Ithakesier, nu; ty icke Odysseus,
    Mot od칬dlige gudars beslut utr칛ttade detta;
    Sjelf jag sk친dade en af de himmelska, som vid Odysseus
    Stod helt n칛ra, i allt fullkomligen liknande Mentor.      445
    En od칬delig gud nu viste sig framf칬r Odysseus,
    Sk칛nkande honom mod, nu, skr칛mmande friareskaran,
    Genom salarna dref; de stupade 칬fver hvarandra.

    S친 han talte; och samtliga dem blek fruktan betr칛ngde,
    Och bland dessa begynte den 친ldrige drott Halitherses,    450
    Mastors son, som sk친dade allt b친d' fram친t och bak친t.
    Han v칛lmenande ordade d친 bland dessa, och sade:

    H칬ren mig nu, Ithakesier alla, ehvad jag m친 s칛ga!
    Egen er vr친ngsinthet allt detta, J v칛nner, f칬rskyllat;
    Ty J lydden ej mig, eller Mentor, m칛nnernes herde,        455
    F칬r att s칬nerna edra fr친n vanvett h친lla tillbaka,
    Hvilka af ofverd친d f칬r칬fvade hiskeligt nidverk,
    칐dande godset ut, och derhos van칛rande makan
    Till den ypperste man, som de mer hemkomma ej trodde.
    S친 nu m친tte det ske; h칬rsammen J mig, som jag s칛ger.      460
    Rycken icke 친stad, att ej sjelfve vi samka oss of칛rd.

    Sade; men desse nu rusade upp med ljudeligt h칛rskri,
    Flere 칛n h칛lften till tal; hoptr칛ngde de 칬frige bidde.
    Ty hans ord dem behagade ej, men heldre de lydde
    Eupeithes, och till vapen p친stund sig skyndade sedan.     465
    Men d친 de p친kl칛dt hade kring kroppen den bl칛nkande kopparn,
    Samlades de mangrannt framf칬r vidrymliga staden,
    Och Eupeithes t친gade sjelf f칬r de d친rar i spetsen.
    Trodde sig sonens d칬d s친 h칛mnas, och icke han skulle
    V칛nda tillbaka, men sjelf derst칛des finna sin hane.       470
    Zeus Kronion dervid tilltaltes utaf Athenaie:

    Ack, v친r far Kronides, du h칬gste af konungar alla,
    Mig, 친tsp칬rjande, s칛g, hvad tanken inom dig f칬rd칬ljer.
    츿rnar du v칛l olyckeligt krig och hiskelig h칛rnad
    Stempla 칛nnu, eller st칛ller du till bland hvardera v칛nskap!  475

    Men molnskockaren Zeus genm칛lte d친 henne, och sade:
    O min dotter, hvarf칬r omsp칬rjer du detta och fr친gar?
    S칛g mig, har du ej sjelf mellertid utt칛nkt, och beslutit,
    Att Odyseus dem skulle, n칛r hem han kommit, bestraffa?
    G칬r dock du, som du vill; sjelf s칛ger jag det som sig skickar. 480
    Efter p친 friarne nu sig h칛mnat den 칛dle Odysseus,
    Stiftande troget f칬rbund, han st칛ds h칛rst칛des regere;
    Vi deremot m친 s칬nernas d칬d och br칬drens gl칬mska
    Bringa; och desse m친 framdeles 칛n inb칬rdes f칬rlikas
    Liksom f칬rut; och skatter och fred m친 rikligen vara.       485

    Ordande s친, han v칛ckte den f칬rr entr칛gna Athene,
    Som fr친n Olympens toppar ihast steg neder till jorden.
    N칛r de nu alle f칬rn칬jt sig utaf hjertf칛gnande m친let,
    B칬rjade orda bland dem m친ngpr칬fvade, 칛dle Odysseus:

    G친nge nu n친gon, att sk친da, om re'n oss n칛ra de anryckt!   490
    Sade; ock Dolios' son uttr칛dde, som denne befallte,
    Dock han p친 tr칬sklen blef, och s친g dem samtliga n칛ra,
    Och till Odysseus strax s친 talade vingade orden:

    Re'n helt n칛ra de 칛ro; derf칬r oss snarligen v칛pnom.
    S친 han talte; de reste sig upp, och i vapen sig kl칛dde,   495
    Kring Odyseus sjelf fyra, och sex af Dolios' s칬ner,
    Ock Laertes med dessa, och Dolios tr칛dde i vapen,
    Sk칬nt gr친lockige redan, likv칛l n칬dtvungne att k칛mpa.
    Men d친 de p친kl칛dt hade kring kroppen den bl칛nkande kopparn,
    L칛to de d칬rrarna opp, och gingo, i spetsen Odysseus.      500
    N칛ra intill dem nalkades nu Zeus' dotter, Athene,
    Mentor lik till kroppen s친v칛l som 칛fven till r칬sten.
    Glad vid dess anblick vardt m친ngpr칬fvade, 칛dle Odysseus,
    Och tilltalte p친stund Telemachos, 칛lskade sonen:
    O Telemachos, redan du sjelf, anryckande, inser.          505
    Att du i m칛nnernas strid, der tappraste bussarne pr칬fvas,
    Ej g칬r skam 친t f칛dernas 칛tt, vi som alltid tillf칬rne
    Voro i mod och i kraft utm칛rkte p친 jorden, den vida.

    Honom Telemachos, den f칬rst친ndige, svarte, och sade:
    Du skall sk친da, min far, om du vill, att med hjerta, som mitt 칛r,
    Aldrig jag skam p친 din 칛tt anbringar, just som du s칛ger.  511

    Ordade s친; Laertes f칬rtjustes, och talte, och sade:
    Finns v칛l en dag, som denne, J gudar? Jag h칬gligen gl칛des:
    Son min och sonson min om tapperheten nu tvista.

    Tr칛dande n칛ra intill klar칬gda Athene begynte:             515
    O Arkeisiades, bland alla kamrater mig k칛rast,
    Sen klar칬gda gudinnan du bedt, och dess fader Kronion,
    Sv칛ng du p친stunden, och slunga 친stad l친ngskaftiga spjutet.

    Sade; och mycket mod p친fl칛ktade Pallas Athene.
    Och n칛r sedan han bedt Zeus' dotter, den v칛ldige gudens,  520
    Sv칛ngde han genast, och slungade han l친ngskaftiga spjutet,
    Tr칛ffande Eupeithes, i den kopparbekindade hjelmen,
    Hvilken mot spjutet ej h칬ll, men spetsen sig tr칛ngde igenom;
    Stupad dunkade han, och hans vapen de klungo p친 honom.
    P친 f칬rk칛mparna sprang Odysseus och den lysande sonen,     525
    Huggande kring sig med sv칛rd och med tvesidsbettiga kastspjut.
    Och nu skulle de alla f칬r칬dt, och ber칬vat dem hemkomst,
    Om ej Athenaie, Zeus', aigisb칛rarens, dotter,
    Hade ljudligen ropt, och samtliga m칛nnerna hejdat:

    O Ithakesier, hejden er nu fr친n f칬rderfliga kriget,       530
    Att blodfl칬de f칬rutan ni m친 skyndsamligen skiljas.

    S친 Athenaie, och strax blek r칛dsla betog d친 dem alla,
    Och ur de fruktandes h칛nder sin kos bortfl칬go gev칛ren,
    N칛r gudinnan h칬jde sin r칬st, samt f칬llo p친 jorden;
    Men de sjelfve till stan h칛nilade, 칬nskande r칛ddning.     535
    Hiskligt skriade till m친ngpr칬fvade, 칛dle Odysseus,
    Och framrusade krum, liksom h칬gflygande 칬rnen.
    D친 aff칛rdade ock Kronides sin flammiga ljungeld,
    Hvilken st칬rtade ned framf칬r klar칬gda gudinnan.
    D친 till Odysseus talte ocks친 klar칬gda Athene:             540

    O zeusborne Laertiades, m친ngsluge Odysseus,
    Hejda dig, sluta nu striden utaf samlottiga kriget,
    Att ej m친 bli Kronides, viddundraren Zeus p친 dig vredgad.

    S친 Athenaie; och han strax lydde, och gladdes i sinnet.
    Men f칬rbund derupp친 dem b친da emellan bestyrde             545
    Pallas Athenaie, Zeus', aigisb칛rarens, dotter,
    Mentor lik till kroppen s친v칛l som 칛fven till r칬sten.

            Slut.








End of the Project Gutenberg EBook of Odysseia, by Homer

